 ****** HSPICE -- P-2019.06-SP2-1 linux64 (Jan  2 2020) ******                  
  Copyright (c) 1986 - 2020 by Synopsys, Inc. All Rights Reserved.              
  This software and the associated documentation are proprietary
  to Synopsys, Inc. This software may only be used in accordance
  with the terms and conditions of a written license agreement with
  Synopsys, Inc. All other use, reproduction, or distribution of
  this software is strictly prohibited.
  Input File: 10_bit-ARTHSAR_Final.sp                                           
  Command line options: /usr/local/contrib/synopsys/hspice_vP-2019.06-SP2-1/hspice/P-2019.06-SP2-1/hspice/linux64/hspice -i 10_bit-ARTHSAR_Final.sp -o 10_bit-ARTHSAR_Final.lis -hpp
  Start time: Tue Jun 30 17:47:34 2020
 lic:  
 lic: FLEXlm: SDK_12.3 
 lic: USER:   msafarpo             HOSTNAME: itee01.oulu.fi 
 lic: HOSTID: "6c2b599f866e"       PID:      46151 
 lic: Using FLEXlm license file: 
 lic: 1730@license1.ee.oulu.fi 
 lic: Checkout 1 hspice 
 lic: License/Maintenance for hspice will expire on 31-dec-2020/2020.03 
 lic: 1(in_use)/40(total) FLOATING license(s) on SERVER 1730@license1.ee.oulu.fi 
 lic:   
  **warning** (_IVR.SP:1) the element "IVR" declared without nodes and value. Please enter valid nodes with corresponding value.
  **warning** (_SRIVR10.SP:1) the element "SRIVR10" declared without nodes and value. Please enter valid nodes with corresponding value.
  **warning** (_F_4BCNT.SP:1) the element "F_4BCNT" declared without nodes and value. Please enter valid nodes with corresponding value.
  **warning** (_Ccomp.SP:1) the element "Ccomp" declared without nodes and value. Please enter valid nodes with corresponding value.
 
 ****** Advanced Analog Library - P-2019.06-SP2-1 (Jan  2 2020) ****** 
  **warning** (./Tech90nm/MOSFET_HSPICE_MODEL/L90_SP10_V051.mdl:4) Model n_10_sp device geometries will not be checked against the limits set by lmin, lmax, wmin and wmax. To enable this check, add a period(.) to the model name(i.e. enable model selector).
  **warning** (10_bit-ARTHSAR_Final.sp:300) runlvl smaller than 5, reset to 5 when accurate turned on

 **warning**  runlvl smaller than 5, reset to 5 when accurate turned on
1****** HSPICE -- P-2019.06-SP2-1 linux64 (Jan  2 2020) ******                  
 ******  
 10_bit_arthsar_final

 ****** circuit name directory
 circuit number to circuit name directory
   number circuitname                     definition         multiplier
        0 main circuit
        1 xinit.                          adsbn              1.00 
        2 xsriv10.                        srivr10            1.00 
        3 xcxnt.                          f_4bcnt            1.00 
        4 xand4.                          and4               1.00 
        5 xdff.                           dff                1.00 
        6 x_and2.                         and2               1.00 
        7 xa_nd2.                         and2               1.00 
        8 xnor10.                         nor10              1.00 
        9 xdff1.                          dff                1.00 
       10 xltch.                          ne_dff             1.00 
       11 x4bfa.                          f_10bfa            1.00 
       12 xdffz9.                         dff                1.00 
       13 xdffz8.                         dff                1.00 
       14 xdffz7.                         dff                1.00 
       15 xdffz6.                         dff                1.00 
       16 xdffz5.                         dff                1.00 
       17 xdffz4.                         dff                1.00 
       18 xdffz3.                         dff                1.00 
       19 xdffz2.                         dff                1.00 
       20 xdffz1.                         dff                1.00 
       21 xdffz0.                         dff                1.00 
       22 xntg.                           not                1.00 
       23 xand2g.                         and2               1.00 
       24 xand2c.                         and2               1.00 
       25 xnt.                            not                1.00 
       26 xand2.                          and2               1.00 
       27 xoro2.                          or2                1.00 
       28 xdffz9d.                        dff                1.00 
       29 xdffz8d.                        dff                1.00 
       30 xdffz7d.                        dff                1.00 
       31 xdffz6d.                        dff                1.00 
       32 xdffz5d.                        dff                1.00 
       33 xdffz4d.                        dff                1.00 
       34 xdffz3d.                        dff                1.00 
       35 xdffz2d.                        dff                1.00 
       36 xdffz1d.                        dff                1.00 
       37 xdffz0d.                        dff                1.00 
       38 xnt9_1.                         notd               1.00 
       39 xnt9_2.                         notd               1.00 
       40 xnt8_1.                         notd               1.00 
       41 xnt8_2.                         notd               1.00 
       42 xnt7_1.                         notd               1.00 
       43 xnt7_2.                         notd               1.00 
       44 xnt6_1.                         notd               1.00 
       45 xnt6_2.                         notd               1.00 
       46 xnt5_1.                         notd               1.00 
       47 xnt5_2.                         notd               1.00 
       48 xnt4_1.                         notd               1.00 
       49 xnt4_2.                         notd               1.00 
       50 xnt3_1.                         notd               1.00 
       51 xnt3_2.                         notd               1.00 
       52 xnt2_1.                         not                1.00 
       53 xnt2_2.                         not                1.00 
       54 xnt1_1.                         not                1.00 
       55 xnt1_2.                         not                1.00 
       56 xnt0_1.                         not                1.00 
       57 xnt0_2.                         not                1.00 
       58 xinit.xxor0.                    xor_4nd            1.00 
       59 xinit.xxor1.                    xor_4nd            1.00 
       60 xinit.xnot0.                    not                1.00 
       61 xinit.xand0.                    and2               1.00 
       62 xinit.xxor2.                    xor_4nd            1.00 
       63 xinit.xor1.                     or2                1.00 
       64 xinit.xnot1.                    not                1.00 
       65 xinit.xand1.                    and2               1.00 
       66 xinit.xxor3.                    xor_4nd            1.00 
       67 xinit.xor2.                     or2                1.00 
       68 xinit.xnot2.                    not                1.00 
       69 xinit.xand2.                    and2               1.00 
       70 xinit.xxor4.                    xor_4nd            1.00 
       71 xinit.xor3.                     or2                1.00 
       72 xinit.xnot3.                    not                1.00 
       73 xinit.xand3.                    and2               1.00 
       74 xinit.xxor5.                    xor_4nd            1.00 
       75 xinit.xor4.                     or2                1.00 
       76 xinit.xnot4.                    not                1.00 
       77 xinit.xand4.                    and2               1.00 
       78 xinit.xxor6.                    xor_4nd            1.00 
       79 xinit.xor5.                     or2                1.00 
       80 xinit.xnot5.                    not                1.00 
       81 xinit.xand5.                    and2               1.00 
       82 xinit.xxor7.                    xor_4nd            1.00 
       83 xinit.xor6.                     or2                1.00 
       84 xinit.xnot6.                    not                1.00 
       85 xinit.xand6.                    and2               1.00 
       86 xinit.xor7.                     or2                1.00 
       87 xinit.xnot7.                    not                1.00 
       88 xinit.xand7.                    and2               1.00 
       89 xinit.xor8.                     or2                1.00 
       90 xinit.xnot8.                    not                1.00 
       91 xinit.xand8.                    and2               1.00 
       92 xsriv10.xmux9.                  mux2-1             1.00 
       93 xsriv10.xdff9.                  dff                1.00 
       94 xsriv10.xmux8.                  mux2-1             1.00 
       95 xsriv10.xdff8.                  dff                1.00 
       96 xsriv10.xmux7.                  mux2-1             1.00 
       97 xsriv10.xdff7.                  dff                1.00 
       98 xsriv10.xmux6.                  mux2-1             1.00 
       99 xsriv10.xdff6.                  dff                1.00 
      100 xsriv10.xmux5.                  mux2-1             1.00 
      101 xsriv10.xdff5.                  dff                1.00 
      102 xsriv10.xmux4.                  mux2-1             1.00 
      103 xsriv10.xdff4.                  dff                1.00 
      104 xsriv10.xmux3.                  mux2-1             1.00 
      105 xsriv10.xdff3.                  dff                1.00 
      106 xsriv10.xmux2.                  mux2-1             1.00 
      107 xsriv10.xdff2.                  dff                1.00 
      108 xsriv10.xmux1.                  mux2-1             1.00 
      109 xsriv10.xdff1.                  dff                1.00 
      110 xsriv10.xmux0.                  mux2-1             1.00 
      111 xsriv10.xdff0.                  dff                1.00 
      112 xcxnt.xdff0.                    dff1               1.00 
      113 xcxnt.xdff1.                    dff1               1.00 
      114 xcxnt.xdff2.                    dff1               1.00 
      115 xcxnt.xdff3.                    dff1               1.00 
      116 xand4.xand1.                    and2               1.00 
      117 xand4.xand2.                    and2               1.00 
      118 xand4.xand.                     and2               1.00 
      119 xdff.xnd1.                      nand3              1.00 
      120 xdff.xnd2.                      nand3              1.00 
      121 xdff.xnd3.                      nand3              1.00 
      122 xdff.xnd4.                      nand3              1.00 
      123 xdff.xnd5.                      nand3              1.00 
      124 xdff.xnd6.                      nand3              1.00 
      125 x_and2.xnot.                    not                1.00 
      126 xa_nd2.xnot.                    not                1.00 
      127 xnor10.xr8.                     nor8               1.00 
      128 xnor10.xnt.                     not                1.00 
      129 xnor10.xr4.                     or4                1.00 
      130 xnor10.xor2.                    nor2               1.00 
      131 xdff1.xnd1.                     nand3              1.00 
      132 xdff1.xnd2.                     nand3              1.00 
      133 xdff1.xnd3.                     nand3              1.00 
      134 xdff1.xnd4.                     nand3              1.00 
      135 xdff1.xnd5.                     nand3              1.00 
      136 xdff1.xnd6.                     nand3              1.00 
      137 xltch.xnot1.                    not                1.00 
      138 xltch.xnot2.                    not                1.00 
      139 xltch.xnot3.                    not                1.00 
      140 xltch.xnot4.                    not                1.00 
      141 xltch.xnot5.                    not                1.00 
      142 x4bfa.xor0.                     xor_4nd            1.00 
      143 x4bfa.xfa0.                     fa                 1.00 
      144 x4bfa.xor1.                     xor_4nd            1.00 
      145 x4bfa.xfa1.                     fa                 1.00 
      146 x4bfa.xor2.                     xor_4nd            1.00 
      147 x4bfa.xfa2.                     fa                 1.00 
      148 x4bfa.xor3.                     xor_4nd            1.00 
      149 x4bfa.xfa3.                     fa                 1.00 
      150 x4bfa.xor4.                     xor_4nd            1.00 
      151 x4bfa.xfa4.                     fa                 1.00 
      152 x4bfa.xor5.                     xor_4nd            1.00 
      153 x4bfa.xfa5.                     fa                 1.00 
      154 x4bfa.xor6.                     xor_4nd            1.00 
      155 x4bfa.xfa6.                     fa                 1.00 
      156 x4bfa.xor7.                     xor_4nd            1.00 
      157 x4bfa.xfa7.                     fa                 1.00 
      158 x4bfa.xor8.                     xor_4nd            1.00 
      159 x4bfa.xfa8.                     fa                 1.00 
      160 x4bfa.xor9.                     xor_4nd            1.00 
      161 x4bfa.xfa9.                     fa                 1.00 
      162 xdffz9.xnd1.                    nand3              1.00 
      163 xdffz9.xnd2.                    nand3              1.00 
      164 xdffz9.xnd3.                    nand3              1.00 
      165 xdffz9.xnd4.                    nand3              1.00 
      166 xdffz9.xnd5.                    nand3              1.00 
      167 xdffz9.xnd6.                    nand3              1.00 
      168 xdffz8.xnd1.                    nand3              1.00 
      169 xdffz8.xnd2.                    nand3              1.00 
      170 xdffz8.xnd3.                    nand3              1.00 
      171 xdffz8.xnd4.                    nand3              1.00 
      172 xdffz8.xnd5.                    nand3              1.00 
      173 xdffz8.xnd6.                    nand3              1.00 
      174 xdffz7.xnd1.                    nand3              1.00 
      175 xdffz7.xnd2.                    nand3              1.00 
      176 xdffz7.xnd3.                    nand3              1.00 
      177 xdffz7.xnd4.                    nand3              1.00 
      178 xdffz7.xnd5.                    nand3              1.00 
      179 xdffz7.xnd6.                    nand3              1.00 
      180 xdffz6.xnd1.                    nand3              1.00 
      181 xdffz6.xnd2.                    nand3              1.00 
      182 xdffz6.xnd3.                    nand3              1.00 
      183 xdffz6.xnd4.                    nand3              1.00 
      184 xdffz6.xnd5.                    nand3              1.00 
      185 xdffz6.xnd6.                    nand3              1.00 
      186 xdffz5.xnd1.                    nand3              1.00 
      187 xdffz5.xnd2.                    nand3              1.00 
      188 xdffz5.xnd3.                    nand3              1.00 
      189 xdffz5.xnd4.                    nand3              1.00 
      190 xdffz5.xnd5.                    nand3              1.00 
      191 xdffz5.xnd6.                    nand3              1.00 
      192 xdffz4.xnd1.                    nand3              1.00 
      193 xdffz4.xnd2.                    nand3              1.00 
      194 xdffz4.xnd3.                    nand3              1.00 
      195 xdffz4.xnd4.                    nand3              1.00 
      196 xdffz4.xnd5.                    nand3              1.00 
      197 xdffz4.xnd6.                    nand3              1.00 
      198 xdffz3.xnd1.                    nand3              1.00 
      199 xdffz3.xnd2.                    nand3              1.00 
      200 xdffz3.xnd3.                    nand3              1.00 
      201 xdffz3.xnd4.                    nand3              1.00 
      202 xdffz3.xnd5.                    nand3              1.00 
      203 xdffz3.xnd6.                    nand3              1.00 
      204 xdffz2.xnd1.                    nand3              1.00 
      205 xdffz2.xnd2.                    nand3              1.00 
      206 xdffz2.xnd3.                    nand3              1.00 
      207 xdffz2.xnd4.                    nand3              1.00 
      208 xdffz2.xnd5.                    nand3              1.00 
      209 xdffz2.xnd6.                    nand3              1.00 
      210 xdffz1.xnd1.                    nand3              1.00 
      211 xdffz1.xnd2.                    nand3              1.00 
      212 xdffz1.xnd3.                    nand3              1.00 
      213 xdffz1.xnd4.                    nand3              1.00 
      214 xdffz1.xnd5.                    nand3              1.00 
      215 xdffz1.xnd6.                    nand3              1.00 
      216 xdffz0.xnd1.                    nand3              1.00 
      217 xdffz0.xnd2.                    nand3              1.00 
      218 xdffz0.xnd3.                    nand3              1.00 
      219 xdffz0.xnd4.                    nand3              1.00 
      220 xdffz0.xnd5.                    nand3              1.00 
      221 xdffz0.xnd6.                    nand3              1.00 
      222 xand2g.xnot.                    not                1.00 
      223 xand2c.xnot.                    not                1.00 
      224 xand2.xnot.                     not                1.00 
      225 xoro2.xnot.                     not                1.00 
      226 xdffz9d.xnd1.                   nand3              1.00 
      227 xdffz9d.xnd2.                   nand3              1.00 
      228 xdffz9d.xnd3.                   nand3              1.00 
      229 xdffz9d.xnd4.                   nand3              1.00 
      230 xdffz9d.xnd5.                   nand3              1.00 
      231 xdffz9d.xnd6.                   nand3              1.00 
      232 xdffz8d.xnd1.                   nand3              1.00 
      233 xdffz8d.xnd2.                   nand3              1.00 
      234 xdffz8d.xnd3.                   nand3              1.00 
      235 xdffz8d.xnd4.                   nand3              1.00 
      236 xdffz8d.xnd5.                   nand3              1.00 
      237 xdffz8d.xnd6.                   nand3              1.00 
      238 xdffz7d.xnd1.                   nand3              1.00 
      239 xdffz7d.xnd2.                   nand3              1.00 
      240 xdffz7d.xnd3.                   nand3              1.00 
      241 xdffz7d.xnd4.                   nand3              1.00 
      242 xdffz7d.xnd5.                   nand3              1.00 
      243 xdffz7d.xnd6.                   nand3              1.00 
      244 xdffz6d.xnd1.                   nand3              1.00 
      245 xdffz6d.xnd2.                   nand3              1.00 
      246 xdffz6d.xnd3.                   nand3              1.00 
      247 xdffz6d.xnd4.                   nand3              1.00 
      248 xdffz6d.xnd5.                   nand3              1.00 
      249 xdffz6d.xnd6.                   nand3              1.00 
      250 xdffz5d.xnd1.                   nand3              1.00 
      251 xdffz5d.xnd2.                   nand3              1.00 
      252 xdffz5d.xnd3.                   nand3              1.00 
      253 xdffz5d.xnd4.                   nand3              1.00 
      254 xdffz5d.xnd5.                   nand3              1.00 
      255 xdffz5d.xnd6.                   nand3              1.00 
      256 xdffz4d.xnd1.                   nand3              1.00 
      257 xdffz4d.xnd2.                   nand3              1.00 
      258 xdffz4d.xnd3.                   nand3              1.00 
      259 xdffz4d.xnd4.                   nand3              1.00 
      260 xdffz4d.xnd5.                   nand3              1.00 
      261 xdffz4d.xnd6.                   nand3              1.00 
      262 xdffz3d.xnd1.                   nand3              1.00 
      263 xdffz3d.xnd2.                   nand3              1.00 
      264 xdffz3d.xnd3.                   nand3              1.00 
      265 xdffz3d.xnd4.                   nand3              1.00 
      266 xdffz3d.xnd5.                   nand3              1.00 
      267 xdffz3d.xnd6.                   nand3              1.00 
      268 xdffz2d.xnd1.                   nand3              1.00 
      269 xdffz2d.xnd2.                   nand3              1.00 
      270 xdffz2d.xnd3.                   nand3              1.00 
      271 xdffz2d.xnd4.                   nand3              1.00 
      272 xdffz2d.xnd5.                   nand3              1.00 
      273 xdffz2d.xnd6.                   nand3              1.00 
      274 xdffz1d.xnd1.                   nand3              1.00 
      275 xdffz1d.xnd2.                   nand3              1.00 
      276 xdffz1d.xnd3.                   nand3              1.00 
      277 xdffz1d.xnd4.                   nand3              1.00 
      278 xdffz1d.xnd5.                   nand3              1.00 
      279 xdffz1d.xnd6.                   nand3              1.00 
      280 xdffz0d.xnd1.                   nand3              1.00 
      281 xdffz0d.xnd2.                   nand3              1.00 
      282 xdffz0d.xnd3.                   nand3              1.00 
      283 xdffz0d.xnd4.                   nand3              1.00 
      284 xdffz0d.xnd5.                   nand3              1.00 
      285 xdffz0d.xnd6.                   nand3              1.00 
      286 xinit.xxor0.xnd1.               nand2              1.00 
      287 xinit.xxor0.xnd2.               nand2              1.00 
      288 xinit.xxor0.xnd3.               nand2              1.00 
      289 xinit.xxor0.xnd4.               nand2              1.00 
      290 xinit.xxor1.xnd1.               nand2              1.00 
      291 xinit.xxor1.xnd2.               nand2              1.00 
      292 xinit.xxor1.xnd3.               nand2              1.00 
      293 xinit.xxor1.xnd4.               nand2              1.00 
      294 xinit.xand0.xnot.               not                1.00 
      295 xinit.xxor2.xnd1.               nand2              1.00 
      296 xinit.xxor2.xnd2.               nand2              1.00 
      297 xinit.xxor2.xnd3.               nand2              1.00 
      298 xinit.xxor2.xnd4.               nand2              1.00 
      299 xinit.xor1.xnot.                not                1.00 
      300 xinit.xand1.xnot.               not                1.00 
      301 xinit.xxor3.xnd1.               nand2              1.00 
      302 xinit.xxor3.xnd2.               nand2              1.00 
      303 xinit.xxor3.xnd3.               nand2              1.00 
      304 xinit.xxor3.xnd4.               nand2              1.00 
      305 xinit.xor2.xnot.                not                1.00 
      306 xinit.xand2.xnot.               not                1.00 
      307 xinit.xxor4.xnd1.               nand2              1.00 
      308 xinit.xxor4.xnd2.               nand2              1.00 
      309 xinit.xxor4.xnd3.               nand2              1.00 
      310 xinit.xxor4.xnd4.               nand2              1.00 
      311 xinit.xor3.xnot.                not                1.00 
      312 xinit.xand3.xnot.               not                1.00 
      313 xinit.xxor5.xnd1.               nand2              1.00 
      314 xinit.xxor5.xnd2.               nand2              1.00 
      315 xinit.xxor5.xnd3.               nand2              1.00 
      316 xinit.xxor5.xnd4.               nand2              1.00 
      317 xinit.xor4.xnot.                not                1.00 
      318 xinit.xand4.xnot.               not                1.00 
      319 xinit.xxor6.xnd1.               nand2              1.00 
      320 xinit.xxor6.xnd2.               nand2              1.00 
      321 xinit.xxor6.xnd3.               nand2              1.00 
      322 xinit.xxor6.xnd4.               nand2              1.00 
      323 xinit.xor5.xnot.                not                1.00 
      324 xinit.xand5.xnot.               not                1.00 
      325 xinit.xxor7.xnd1.               nand2              1.00 
      326 xinit.xxor7.xnd2.               nand2              1.00 
      327 xinit.xxor7.xnd3.               nand2              1.00 
      328 xinit.xxor7.xnd4.               nand2              1.00 
      329 xinit.xor6.xnot.                not                1.00 
      330 xinit.xand6.xnot.               not                1.00 
      331 xinit.xor7.xnot.                not                1.00 
      332 xinit.xand7.xnot.               not                1.00 
      333 xinit.xor8.xnot.                not                1.00 
      334 xinit.xand8.xnot.               not                1.00 
      335 xsriv10.xmux9.xnd1.             nand2              1.00 
      336 xsriv10.xmux9.xnot.             not                1.00 
      337 xsriv10.xmux9.xnd2.             nand2              1.00 
      338 xsriv10.xmux9.xnd3.             nand2              1.00 
      339 xsriv10.xdff9.xnd1.             nand3              1.00 
      340 xsriv10.xdff9.xnd2.             nand3              1.00 
      341 xsriv10.xdff9.xnd3.             nand3              1.00 
      342 xsriv10.xdff9.xnd4.             nand3              1.00 
      343 xsriv10.xdff9.xnd5.             nand3              1.00 
      344 xsriv10.xdff9.xnd6.             nand3              1.00 
      345 xsriv10.xmux8.xnd1.             nand2              1.00 
      346 xsriv10.xmux8.xnot.             not                1.00 
      347 xsriv10.xmux8.xnd2.             nand2              1.00 
      348 xsriv10.xmux8.xnd3.             nand2              1.00 
      349 xsriv10.xdff8.xnd1.             nand3              1.00 
      350 xsriv10.xdff8.xnd2.             nand3              1.00 
      351 xsriv10.xdff8.xnd3.             nand3              1.00 
      352 xsriv10.xdff8.xnd4.             nand3              1.00 
      353 xsriv10.xdff8.xnd5.             nand3              1.00 
      354 xsriv10.xdff8.xnd6.             nand3              1.00 
      355 xsriv10.xmux7.xnd1.             nand2              1.00 
      356 xsriv10.xmux7.xnot.             not                1.00 
      357 xsriv10.xmux7.xnd2.             nand2              1.00 
      358 xsriv10.xmux7.xnd3.             nand2              1.00 
      359 xsriv10.xdff7.xnd1.             nand3              1.00 
      360 xsriv10.xdff7.xnd2.             nand3              1.00 
      361 xsriv10.xdff7.xnd3.             nand3              1.00 
      362 xsriv10.xdff7.xnd4.             nand3              1.00 
      363 xsriv10.xdff7.xnd5.             nand3              1.00 
      364 xsriv10.xdff7.xnd6.             nand3              1.00 
      365 xsriv10.xmux6.xnd1.             nand2              1.00 
      366 xsriv10.xmux6.xnot.             not                1.00 
      367 xsriv10.xmux6.xnd2.             nand2              1.00 
      368 xsriv10.xmux6.xnd3.             nand2              1.00 
      369 xsriv10.xdff6.xnd1.             nand3              1.00 
      370 xsriv10.xdff6.xnd2.             nand3              1.00 
      371 xsriv10.xdff6.xnd3.             nand3              1.00 
      372 xsriv10.xdff6.xnd4.             nand3              1.00 
      373 xsriv10.xdff6.xnd5.             nand3              1.00 
      374 xsriv10.xdff6.xnd6.             nand3              1.00 
      375 xsriv10.xmux5.xnd1.             nand2              1.00 
      376 xsriv10.xmux5.xnot.             not                1.00 
      377 xsriv10.xmux5.xnd2.             nand2              1.00 
      378 xsriv10.xmux5.xnd3.             nand2              1.00 
      379 xsriv10.xdff5.xnd1.             nand3              1.00 
      380 xsriv10.xdff5.xnd2.             nand3              1.00 
      381 xsriv10.xdff5.xnd3.             nand3              1.00 
      382 xsriv10.xdff5.xnd4.             nand3              1.00 
      383 xsriv10.xdff5.xnd5.             nand3              1.00 
      384 xsriv10.xdff5.xnd6.             nand3              1.00 
      385 xsriv10.xmux4.xnd1.             nand2              1.00 
      386 xsriv10.xmux4.xnot.             not                1.00 
      387 xsriv10.xmux4.xnd2.             nand2              1.00 
      388 xsriv10.xmux4.xnd3.             nand2              1.00 
      389 xsriv10.xdff4.xnd1.             nand3              1.00 
      390 xsriv10.xdff4.xnd2.             nand3              1.00 
      391 xsriv10.xdff4.xnd3.             nand3              1.00 
      392 xsriv10.xdff4.xnd4.             nand3              1.00 
      393 xsriv10.xdff4.xnd5.             nand3              1.00 
      394 xsriv10.xdff4.xnd6.             nand3              1.00 
      395 xsriv10.xmux3.xnd1.             nand2              1.00 
      396 xsriv10.xmux3.xnot.             not                1.00 
      397 xsriv10.xmux3.xnd2.             nand2              1.00 
      398 xsriv10.xmux3.xnd3.             nand2              1.00 
      399 xsriv10.xdff3.xnd1.             nand3              1.00 
      400 xsriv10.xdff3.xnd2.             nand3              1.00 
      401 xsriv10.xdff3.xnd3.             nand3              1.00 
      402 xsriv10.xdff3.xnd4.             nand3              1.00 
      403 xsriv10.xdff3.xnd5.             nand3              1.00 
      404 xsriv10.xdff3.xnd6.             nand3              1.00 
      405 xsriv10.xmux2.xnd1.             nand2              1.00 
      406 xsriv10.xmux2.xnot.             not                1.00 
      407 xsriv10.xmux2.xnd2.             nand2              1.00 
      408 xsriv10.xmux2.xnd3.             nand2              1.00 
      409 xsriv10.xdff2.xnd1.             nand3              1.00 
      410 xsriv10.xdff2.xnd2.             nand3              1.00 
      411 xsriv10.xdff2.xnd3.             nand3              1.00 
      412 xsriv10.xdff2.xnd4.             nand3              1.00 
      413 xsriv10.xdff2.xnd5.             nand3              1.00 
      414 xsriv10.xdff2.xnd6.             nand3              1.00 
      415 xsriv10.xmux1.xnd1.             nand2              1.00 
      416 xsriv10.xmux1.xnot.             not                1.00 
      417 xsriv10.xmux1.xnd2.             nand2              1.00 
      418 xsriv10.xmux1.xnd3.             nand2              1.00 
      419 xsriv10.xdff1.xnd1.             nand3              1.00 
      420 xsriv10.xdff1.xnd2.             nand3              1.00 
      421 xsriv10.xdff1.xnd3.             nand3              1.00 
      422 xsriv10.xdff1.xnd4.             nand3              1.00 
      423 xsriv10.xdff1.xnd5.             nand3              1.00 
      424 xsriv10.xdff1.xnd6.             nand3              1.00 
      425 xsriv10.xmux0.xnd1.             nand2              1.00 
      426 xsriv10.xmux0.xnot.             not                1.00 
      427 xsriv10.xmux0.xnd2.             nand2              1.00 
      428 xsriv10.xmux0.xnd3.             nand2              1.00 
      429 xsriv10.xdff0.xnd1.             nand3              1.00 
      430 xsriv10.xdff0.xnd2.             nand3              1.00 
      431 xsriv10.xdff0.xnd3.             nand3              1.00 
      432 xsriv10.xdff0.xnd4.             nand3              1.00 
      433 xsriv10.xdff0.xnd5.             nand3              1.00 
      434 xsriv10.xdff0.xnd6.             nand3              1.00 
      435 xcxnt.xdff0.xnd1.               nand3              1.00 
      436 xcxnt.xdff0.xnd2.               nand3              1.00 
      437 xcxnt.xdff0.xnd3.               nand3              1.00 
      438 xcxnt.xdff0.xnd4.               nand3              1.00 
      439 xcxnt.xdff0.xnd5.               nand3              1.00 
      440 xcxnt.xdff0.xnd6.               nand3              1.00 
      441 xcxnt.xdff1.xnd1.               nand3              1.00 
      442 xcxnt.xdff1.xnd2.               nand3              1.00 
      443 xcxnt.xdff1.xnd3.               nand3              1.00 
      444 xcxnt.xdff1.xnd4.               nand3              1.00 
      445 xcxnt.xdff1.xnd5.               nand3              1.00 
      446 xcxnt.xdff1.xnd6.               nand3              1.00 
      447 xcxnt.xdff2.xnd1.               nand3              1.00 
      448 xcxnt.xdff2.xnd2.               nand3              1.00 
      449 xcxnt.xdff2.xnd3.               nand3              1.00 
      450 xcxnt.xdff2.xnd4.               nand3              1.00 
      451 xcxnt.xdff2.xnd5.               nand3              1.00 
      452 xcxnt.xdff2.xnd6.               nand3              1.00 
      453 xcxnt.xdff3.xnd1.               nand3              1.00 
      454 xcxnt.xdff3.xnd2.               nand3              1.00 
      455 xcxnt.xdff3.xnd3.               nand3              1.00 
      456 xcxnt.xdff3.xnd4.               nand3              1.00 
      457 xcxnt.xdff3.xnd5.               nand3              1.00 
      458 xcxnt.xdff3.xnd6.               nand3              1.00 
      459 xand4.xand1.xnot.               not                1.00 
      460 xand4.xand2.xnot.               not                1.00 
      461 xand4.xand.xnot.                not                1.00 
      462 xnor10.xr8.xr4-1.               or4                1.00 
      463 xnor10.xr8.xr4-2.               or4                1.00 
      464 xnor10.xr8.xnor.                nor2               1.00 
      465 xnor10.xr4.xnor1.               nor2               1.00 
      466 xnor10.xr4.xnor2.               nor2               1.00 
      467 xnor10.xr4.xnd.                 nand2              1.00 
      468 x4bfa.xor0.xnd1.                nand2              1.00 
      469 x4bfa.xor0.xnd2.                nand2              1.00 
      470 x4bfa.xor0.xnd3.                nand2              1.00 
      471 x4bfa.xor0.xnd4.                nand2              1.00 
      472 x4bfa.xfa0.xor1.                xor_4nd            1.00 
      473 x4bfa.xfa0.xor2.                xor_4nd            1.00 
      474 x4bfa.xfa0.xand1.               and2               1.00 
      475 x4bfa.xfa0.xand2.               and2               1.00 
      476 x4bfa.xfa0.x_or.                or2                1.00 
      477 x4bfa.xor1.xnd1.                nand2              1.00 
      478 x4bfa.xor1.xnd2.                nand2              1.00 
      479 x4bfa.xor1.xnd3.                nand2              1.00 
      480 x4bfa.xor1.xnd4.                nand2              1.00 
      481 x4bfa.xfa1.xor1.                xor_4nd            1.00 
      482 x4bfa.xfa1.xor2.                xor_4nd            1.00 
      483 x4bfa.xfa1.xand1.               and2               1.00 
      484 x4bfa.xfa1.xand2.               and2               1.00 
      485 x4bfa.xfa1.x_or.                or2                1.00 
      486 x4bfa.xor2.xnd1.                nand2              1.00 
      487 x4bfa.xor2.xnd2.                nand2              1.00 
      488 x4bfa.xor2.xnd3.                nand2              1.00 
      489 x4bfa.xor2.xnd4.                nand2              1.00 
      490 x4bfa.xfa2.xor1.                xor_4nd            1.00 
      491 x4bfa.xfa2.xor2.                xor_4nd            1.00 
      492 x4bfa.xfa2.xand1.               and2               1.00 
      493 x4bfa.xfa2.xand2.               and2               1.00 
      494 x4bfa.xfa2.x_or.                or2                1.00 
      495 x4bfa.xor3.xnd1.                nand2              1.00 
      496 x4bfa.xor3.xnd2.                nand2              1.00 
      497 x4bfa.xor3.xnd3.                nand2              1.00 
      498 x4bfa.xor3.xnd4.                nand2              1.00 
      499 x4bfa.xfa3.xor1.                xor_4nd            1.00 
      500 x4bfa.xfa3.xor2.                xor_4nd            1.00 
      501 x4bfa.xfa3.xand1.               and2               1.00 
      502 x4bfa.xfa3.xand2.               and2               1.00 
      503 x4bfa.xfa3.x_or.                or2                1.00 
      504 x4bfa.xor4.xnd1.                nand2              1.00 
      505 x4bfa.xor4.xnd2.                nand2              1.00 
      506 x4bfa.xor4.xnd3.                nand2              1.00 
      507 x4bfa.xor4.xnd4.                nand2              1.00 
      508 x4bfa.xfa4.xor1.                xor_4nd            1.00 
      509 x4bfa.xfa4.xor2.                xor_4nd            1.00 
      510 x4bfa.xfa4.xand1.               and2               1.00 
      511 x4bfa.xfa4.xand2.               and2               1.00 
      512 x4bfa.xfa4.x_or.                or2                1.00 
      513 x4bfa.xor5.xnd1.                nand2              1.00 
      514 x4bfa.xor5.xnd2.                nand2              1.00 
      515 x4bfa.xor5.xnd3.                nand2              1.00 
      516 x4bfa.xor5.xnd4.                nand2              1.00 
      517 x4bfa.xfa5.xor1.                xor_4nd            1.00 
      518 x4bfa.xfa5.xor2.                xor_4nd            1.00 
      519 x4bfa.xfa5.xand1.               and2               1.00 
      520 x4bfa.xfa5.xand2.               and2               1.00 
      521 x4bfa.xfa5.x_or.                or2                1.00 
      522 x4bfa.xor6.xnd1.                nand2              1.00 
      523 x4bfa.xor6.xnd2.                nand2              1.00 
      524 x4bfa.xor6.xnd3.                nand2              1.00 
      525 x4bfa.xor6.xnd4.                nand2              1.00 
      526 x4bfa.xfa6.xor1.                xor_4nd            1.00 
      527 x4bfa.xfa6.xor2.                xor_4nd            1.00 
      528 x4bfa.xfa6.xand1.               and2               1.00 
      529 x4bfa.xfa6.xand2.               and2               1.00 
      530 x4bfa.xfa6.x_or.                or2                1.00 
      531 x4bfa.xor7.xnd1.                nand2              1.00 
      532 x4bfa.xor7.xnd2.                nand2              1.00 
      533 x4bfa.xor7.xnd3.                nand2              1.00 
      534 x4bfa.xor7.xnd4.                nand2              1.00 
      535 x4bfa.xfa7.xor1.                xor_4nd            1.00 
      536 x4bfa.xfa7.xor2.                xor_4nd            1.00 
      537 x4bfa.xfa7.xand1.               and2               1.00 
      538 x4bfa.xfa7.xand2.               and2               1.00 
      539 x4bfa.xfa7.x_or.                or2                1.00 
      540 x4bfa.xor8.xnd1.                nand2              1.00 
      541 x4bfa.xor8.xnd2.                nand2              1.00 
      542 x4bfa.xor8.xnd3.                nand2              1.00 
      543 x4bfa.xor8.xnd4.                nand2              1.00 
      544 x4bfa.xfa8.xor1.                xor_4nd            1.00 
      545 x4bfa.xfa8.xor2.                xor_4nd            1.00 
      546 x4bfa.xfa8.xand1.               and2               1.00 
      547 x4bfa.xfa8.xand2.               and2               1.00 
      548 x4bfa.xfa8.x_or.                or2                1.00 
      549 x4bfa.xor9.xnd1.                nand2              1.00 
      550 x4bfa.xor9.xnd2.                nand2              1.00 
      551 x4bfa.xor9.xnd3.                nand2              1.00 
      552 x4bfa.xor9.xnd4.                nand2              1.00 
      553 x4bfa.xfa9.xor1.                xor_4nd            1.00 
      554 x4bfa.xfa9.xor2.                xor_4nd            1.00 
      555 x4bfa.xfa9.xand1.               and2               1.00 
      556 x4bfa.xfa9.xand2.               and2               1.00 
      557 x4bfa.xfa9.x_or.                or2                1.00 
      558 xnor10.xr8.xr4-1.xnor1.         nor2               1.00 
      559 xnor10.xr8.xr4-1.xnor2.         nor2               1.00 
      560 xnor10.xr8.xr4-1.xnd.           nand2              1.00 
      561 xnor10.xr8.xr4-2.xnor1.         nor2               1.00 
      562 xnor10.xr8.xr4-2.xnor2.         nor2               1.00 
      563 xnor10.xr8.xr4-2.xnd.           nand2              1.00 
      564 x4bfa.xfa0.xor1.xnd1.           nand2              1.00 
      565 x4bfa.xfa0.xor1.xnd2.           nand2              1.00 
      566 x4bfa.xfa0.xor1.xnd3.           nand2              1.00 
      567 x4bfa.xfa0.xor1.xnd4.           nand2              1.00 
      568 x4bfa.xfa0.xor2.xnd1.           nand2              1.00 
      569 x4bfa.xfa0.xor2.xnd2.           nand2              1.00 
      570 x4bfa.xfa0.xor2.xnd3.           nand2              1.00 
      571 x4bfa.xfa0.xor2.xnd4.           nand2              1.00 
      572 x4bfa.xfa0.xand1.xnot.          not                1.00 
      573 x4bfa.xfa0.xand2.xnot.          not                1.00 
      574 x4bfa.xfa0.x_or.xnot.           not                1.00 
      575 x4bfa.xfa1.xor1.xnd1.           nand2              1.00 
      576 x4bfa.xfa1.xor1.xnd2.           nand2              1.00 
      577 x4bfa.xfa1.xor1.xnd3.           nand2              1.00 
      578 x4bfa.xfa1.xor1.xnd4.           nand2              1.00 
      579 x4bfa.xfa1.xor2.xnd1.           nand2              1.00 
      580 x4bfa.xfa1.xor2.xnd2.           nand2              1.00 
      581 x4bfa.xfa1.xor2.xnd3.           nand2              1.00 
      582 x4bfa.xfa1.xor2.xnd4.           nand2              1.00 
      583 x4bfa.xfa1.xand1.xnot.          not                1.00 
      584 x4bfa.xfa1.xand2.xnot.          not                1.00 
      585 x4bfa.xfa1.x_or.xnot.           not                1.00 
      586 x4bfa.xfa2.xor1.xnd1.           nand2              1.00 
      587 x4bfa.xfa2.xor1.xnd2.           nand2              1.00 
      588 x4bfa.xfa2.xor1.xnd3.           nand2              1.00 
      589 x4bfa.xfa2.xor1.xnd4.           nand2              1.00 
      590 x4bfa.xfa2.xor2.xnd1.           nand2              1.00 
      591 x4bfa.xfa2.xor2.xnd2.           nand2              1.00 
      592 x4bfa.xfa2.xor2.xnd3.           nand2              1.00 
      593 x4bfa.xfa2.xor2.xnd4.           nand2              1.00 
      594 x4bfa.xfa2.xand1.xnot.          not                1.00 
      595 x4bfa.xfa2.xand2.xnot.          not                1.00 
      596 x4bfa.xfa2.x_or.xnot.           not                1.00 
      597 x4bfa.xfa3.xor1.xnd1.           nand2              1.00 
      598 x4bfa.xfa3.xor1.xnd2.           nand2              1.00 
      599 x4bfa.xfa3.xor1.xnd3.           nand2              1.00 
      600 x4bfa.xfa3.xor1.xnd4.           nand2              1.00 
      601 x4bfa.xfa3.xor2.xnd1.           nand2              1.00 
      602 x4bfa.xfa3.xor2.xnd2.           nand2              1.00 
      603 x4bfa.xfa3.xor2.xnd3.           nand2              1.00 
      604 x4bfa.xfa3.xor2.xnd4.           nand2              1.00 
      605 x4bfa.xfa3.xand1.xnot.          not                1.00 
      606 x4bfa.xfa3.xand2.xnot.          not                1.00 
      607 x4bfa.xfa3.x_or.xnot.           not                1.00 
      608 x4bfa.xfa4.xor1.xnd1.           nand2              1.00 
      609 x4bfa.xfa4.xor1.xnd2.           nand2              1.00 
      610 x4bfa.xfa4.xor1.xnd3.           nand2              1.00 
      611 x4bfa.xfa4.xor1.xnd4.           nand2              1.00 
      612 x4bfa.xfa4.xor2.xnd1.           nand2              1.00 
      613 x4bfa.xfa4.xor2.xnd2.           nand2              1.00 
      614 x4bfa.xfa4.xor2.xnd3.           nand2              1.00 
      615 x4bfa.xfa4.xor2.xnd4.           nand2              1.00 
      616 x4bfa.xfa4.xand1.xnot.          not                1.00 
      617 x4bfa.xfa4.xand2.xnot.          not                1.00 
      618 x4bfa.xfa4.x_or.xnot.           not                1.00 
      619 x4bfa.xfa5.xor1.xnd1.           nand2              1.00 
      620 x4bfa.xfa5.xor1.xnd2.           nand2              1.00 
      621 x4bfa.xfa5.xor1.xnd3.           nand2              1.00 
      622 x4bfa.xfa5.xor1.xnd4.           nand2              1.00 
      623 x4bfa.xfa5.xor2.xnd1.           nand2              1.00 
      624 x4bfa.xfa5.xor2.xnd2.           nand2              1.00 
      625 x4bfa.xfa5.xor2.xnd3.           nand2              1.00 
      626 x4bfa.xfa5.xor2.xnd4.           nand2              1.00 
      627 x4bfa.xfa5.xand1.xnot.          not                1.00 
      628 x4bfa.xfa5.xand2.xnot.          not                1.00 
      629 x4bfa.xfa5.x_or.xnot.           not                1.00 
      630 x4bfa.xfa6.xor1.xnd1.           nand2              1.00 
      631 x4bfa.xfa6.xor1.xnd2.           nand2              1.00 
      632 x4bfa.xfa6.xor1.xnd3.           nand2              1.00 
      633 x4bfa.xfa6.xor1.xnd4.           nand2              1.00 
      634 x4bfa.xfa6.xor2.xnd1.           nand2              1.00 
      635 x4bfa.xfa6.xor2.xnd2.           nand2              1.00 
      636 x4bfa.xfa6.xor2.xnd3.           nand2              1.00 
      637 x4bfa.xfa6.xor2.xnd4.           nand2              1.00 
      638 x4bfa.xfa6.xand1.xnot.          not                1.00 
      639 x4bfa.xfa6.xand2.xnot.          not                1.00 
      640 x4bfa.xfa6.x_or.xnot.           not                1.00 
      641 x4bfa.xfa7.xor1.xnd1.           nand2              1.00 
      642 x4bfa.xfa7.xor1.xnd2.           nand2              1.00 
      643 x4bfa.xfa7.xor1.xnd3.           nand2              1.00 
      644 x4bfa.xfa7.xor1.xnd4.           nand2              1.00 
      645 x4bfa.xfa7.xor2.xnd1.           nand2              1.00 
      646 x4bfa.xfa7.xor2.xnd2.           nand2              1.00 
      647 x4bfa.xfa7.xor2.xnd3.           nand2              1.00 
      648 x4bfa.xfa7.xor2.xnd4.           nand2              1.00 
      649 x4bfa.xfa7.xand1.xnot.          not                1.00 
      650 x4bfa.xfa7.xand2.xnot.          not                1.00 
      651 x4bfa.xfa7.x_or.xnot.           not                1.00 
      652 x4bfa.xfa8.xor1.xnd1.           nand2              1.00 
      653 x4bfa.xfa8.xor1.xnd2.           nand2              1.00 
      654 x4bfa.xfa8.xor1.xnd3.           nand2              1.00 
      655 x4bfa.xfa8.xor1.xnd4.           nand2              1.00 
      656 x4bfa.xfa8.xor2.xnd1.           nand2              1.00 
      657 x4bfa.xfa8.xor2.xnd2.           nand2              1.00 
      658 x4bfa.xfa8.xor2.xnd3.           nand2              1.00 
      659 x4bfa.xfa8.xor2.xnd4.           nand2              1.00 
      660 x4bfa.xfa8.xand1.xnot.          not                1.00 
      661 x4bfa.xfa8.xand2.xnot.          not                1.00 
      662 x4bfa.xfa8.x_or.xnot.           not                1.00 
      663 x4bfa.xfa9.xor1.xnd1.           nand2              1.00 
      664 x4bfa.xfa9.xor1.xnd2.           nand2              1.00 
      665 x4bfa.xfa9.xor1.xnd3.           nand2              1.00 
      666 x4bfa.xfa9.xor1.xnd4.           nand2              1.00 
      667 x4bfa.xfa9.xor2.xnd1.           nand2              1.00 
      668 x4bfa.xfa9.xor2.xnd2.           nand2              1.00 
      669 x4bfa.xfa9.xor2.xnd3.           nand2              1.00 
      670 x4bfa.xfa9.xor2.xnd4.           nand2              1.00 
      671 x4bfa.xfa9.xand1.xnot.          not                1.00 
      672 x4bfa.xfa9.xand2.xnot.          not                1.00 
      673 x4bfa.xfa9.x_or.xnot.           not                1.00 

 **warning** It is recommended that you set start explicitly:
             .TRAN tstep tstop START=val


 ******  
 10_bit_arthsar_final

 ****** mos   model parameters tnom=  25.000 temp=  25.000 ******
 Model file: ./Tech90nm/MOSFET_HSPICE_MODEL/L90_SP10_V051.mdl
 Model line:            4
 Model Name: n_10_sp  
 BSIM4 Model (Level 54)
    MOBMOD = 0
    BINUNIT = 1
    PARAMCHK = 1
    CAPMOD = 2
    DIOMOD = 2
    RDSMOD = 0
    TRNQSMOD = 0
    ACNQSMOD = 0
    RBODYMOD = 0
    RGATEMOD = 0
    PERMOD = 1
    GEOMOD = 0
    RGEOMOD = 1
    FNOIMOD = 1
    TNOIMOD = 0
    IGCMOD = 1
    IGBMOD = 1
    STIMOD = 1
    VBFWDMOD = 0
    VERSION =    4.3 
    TOXREF = 2.25e-09 
    TOXE = 2.25e-09 
    TOXP = 1.822e-09 
    TOXM = 2.25e-09 
    DTOX =      0 
    EPSROX =    3.9 
    CDSC = 0.0004649 
    CDSCB = 0.00015 
    CDSCD =      0 
    CIT = 0.001552 
    NFACTOR =    0.1 
    XJ = 1.2e-07 
    VSAT = 1.625e+05 
    A0 =  8.834 
    AGS =  1.002 
    A1 =      0 
    A2 =      1 
    AT =  1e+05 
    KETA = -0.04408 
    NSUB =  6e+16 
    NDEP =  1e+17 
    NSD =  1e+20 
    NGATE = 1.3e+20 
    GAMMA1 =      0 
    GAMMA2 =      0 
    VBX =      0 
    VBM =     -3 
    XT = 1.55e-07 
    K1 = 0.1569 
    KT1 =  -0.38 
    KT1L =  1e-09 
    KT2 = -0.04074 
    K2 =  0.004 
    K3 = -1.288 
    K3B =  2.928 
    LPE0 =  1e-10 
    LPEB = -1.699e-07 
    DVTP0 = 8.91e-06 
    DVTP1 = -0.8063 
    W0 =  9e-08 
    DVT0 =  3.963 
    DVT1 = 0.5632 
    DVT2 = -0.0332 
    DVT0W = 0.5251 
    DVT1W = 1.117e+07 
    DVT2W =  -0.77 
    DROUT = 0.5599 
    DSUB =  0.039 
    VTH0 = -0.001 
    EU =   1.67 
    UA = -1.55e-09 
    UA1 = 4.35e-09 
    UB = 3.48e-18 
    UB1 = -4.104e-18 
    UC = 1.733e-10 
    UC1 = 2.636e-10 
    U0 = 0.0232 
    UTE = -1.022 
    VOFF = -0.06387 
    VOFFL = -4.927e-09 
    MINV = 0.7704 
    FPROUT =   0.01 
    PDITS =  0.611 
    PDITSD =   0.88 
    PDITSL =  1e+05 
    DELTA =   0.01 
    RDSW =     50 
    RDSWMIN =     50 
    RDWMIN =      0 
    RSWMIN =      0 
    RDW =    100 
    RSW =    100 
    PRWG =   0.28 
    PRWB =  0.447 
    PRT =      0 
    ETA0 =  5e-05 
    ETAB = -0.000185 
    PCLM =    0.1 
    PDIBLC1 =  1e-07 
    PDIBLC2 = 0.03954 
    PDIBLCB =    0.1 
    PSCBE1 = 6.535e+09 
    PSCBE2 =   0.33 
    PVAG =  8.618 
    WR =      1 
    DWG = -5.4e-09 
    DWB = 4.8e-09 
    XW =      0 
    XWREF =      0 
    XL = -1e-08 
    XLREF = -1e-08 
    B0 =      0 
    B1 =  1e-08 
    ALPHA0 =  2e-07 
    ALPHA1 =      4 
    AGIDL = 1.108e-08 
    BGIDL = 1.39e+09 
    CGIDL = 0.2963 
    PHIN = 0.08767 
    EGIDL =  0.944 
    AIGC = 0.01138 
    BIGC = 0.001879 
    CIGC = 0.0001 
    AIGSD = 0.009883 
    BIGSD = 0.001269 
    CIGSD = 0.1554 
    AIGBACC = 0.01198 
    BIGBACC = 0.008013 
    CIGBACC = 0.6256 
    AIGBINV = 0.0153 
    BIGBINV = 0.004852 
    CIGBINV =  0.001 
    NIGC =      1 
    NIGBINV =    1.6 
    NIGBACC =  4.397 
    NTOX =      1 
    EIGBINV =    1.1 
    PIGCD =    2.5 
    POXEDGE =      1 
    XRCRG1 =     12 
    TNOIA =    1.5 
    TNOIB =    3.5 
    NTNOI =      1 
    XRCRG2 =      1 
    BETA0 =     15 
    IJTHDFWD = 0.003445 
    IJTHSFWD = 0.003445 
    IJTHDREV = 0.001691 
    IJTHSREV = 0.001691 
    XJBVD =      1 
    XJBVS =      1 
    BVD =  11.47 
    BVS =  11.47 
    VFB =     -1 
    GBMIN =  1e-12 
    RBDB =     50 
    RBPB =     50 
    RBSB =     50 
    RBPS =     50 
    RBPD =     50 
    CGSL = 2.2e-10 
    CGDL = 2.2e-10 
    CKAPPAS =      3 
    CKAPPAD =      3 
    CF = 9.26e-11 
    CLC =  1e-07 
    CLE =    0.6 
    DWC = -3e-08 
    DLC = 1.64e-08 
    DLCIG = 1.8e-08 
    DWJ =      0 
    VFBCV =     -1 
    ACDE = 0.2808 
    MOIN =  11.83 
    NOFF =  2.486 
    VOFFCV = -0.01372 
    DMCG = 1.6e-07 
    DMCI =  1e-07 
    DMDG =      0 
    DMCGT =      0 
    XGW =      0 
    XGL =      0 
    RSHG =    0.1 
    NGCON =      1 
    TCJ = 0.0009 
    TPB = 0.0013 
    TCJSW = 0.0004 
    TPBSW = 0.003515 
    TCJSWG = 0.008229 
    TPBSWG = 0.001247 
    SK0 =      0 
    SK1 =      0 
    SK2 =      0 
    SL =  2e-06 
    SW =  2e-06 
    K =      0 
    LCIT =  7e-05 
    LAGS =    0.8 
    LKETA = 0.004392 
    LK3 =   0.72 
    LK3B =   -0.2 
    LLPE0 = 3.891e-08 
    LLPEB = 3.891e-08 
    LDSUB = -0.001272 
    LUB = -2.522e-20 
    LUB1 = 6.5e-20 
    LUTE = 0.07524 
    LDELTA = 0.000558 
    LETA0 = 1.3e-05 
    LETAB = 8.251e-06 
    LVOFFCV = -0.005322 
    WK3 =  -0.13 
    WDSUB = 0.0005 
    WUB = -3e-20 
    WUC = -5.5e-12 
    WUC1 = -7.2e-12 
    WU0 = 0.00024 
    WUTE =  0.025 
    WVOFF = -0.00134 
    WETA0 = 3.776e-05 
    PVSAT = -733.9 
    PKETA = -0.0005 
    PKT1 =  0.001 
    PK3B =   0.02 
    PVTH0 = -0.00125 
    PUB = -6.527e-21 
    PU0 = -6.5e-05 
    PUTE = 0.0074 
    TNOM =  298.1 
    CGSO =  5e-11 
    CGDO =  5e-11 
    CGBO =      0 
    XPART =      1 
    RSH =      8 
    JSS = 2.335e-07 
    JSWS = 7.033e-14 
    JSWGS = 3.299e-14 
    PBS =   0.61 
    MJS =   0.29 
    PBSWS =   0.99 
    MJSWS =    0.1 
    CJS = 0.00107 
    CJSWS = 1.26e-10 
    NJS =  1.056 
    PBSWGS =    0.6 
    MJSWGS =  0.989 
    CJSWGS = 2.31e-10 
    XTIS =      3 
    JSD = 2.335e-07 
    JSWD = 7.033e-14 
    JSWGD = 3.299e-14 
    PBD =   0.61 
    MJD =   0.29 
    PBSWD =   0.99 
    MJSWD =    0.1 
    CJD = 0.00107 
    CJSWD = 1.26e-10 
    NJD =  1.056 
    PBSWGD =    0.6 
    MJSWGD =  0.989 
    CJSWGD = 2.31e-10 
    XTID =      3 
    LMLT =      1 
    WMLT =      1 
    LINT = -4.091e-09 
    LL = 4.348e-16 
    LLC = -9.01e-16 
    LLN =    0.9 
    LW = 3.208e-15 
    LWC =      0 
    LWN =      1 
    LWL = -1.622e-21 
    LWLC =      0 
    LMIN =  8e-08 
    LMAX =  5e-05 
    WINT = 2.021e-08 
    WL = -4.005e-15 
    WLC =      0 
    WLN =      1 
    WW = -1.501e-15 
    WWC =  1e-15 
    WWN =      1 
    WWL = 1.782e-22 
    WWLC =      0 
    WMIN = 1.2e-07 
    WMAX = 0.0001 
    NOIA = 3.87e+41 
    NOIB = 1.86e+25 
    NOIC = 6.7e+08 
    EM = 6.36e+06 
    EF = 0.9448 
    AF =      1 
    KF =      0 
    TRS =      0 
    TRD =      0 
    TEMPMOD  =      0 
    LAMBDA   =      0 
    VTL      =  2e+05 m/s
    LC       =  5e-09 
    XN       =      3 
    LLAMBDA  =      0 
    LVTL     =      0 
    LXN      =      0 
    WLAMBDA  =      0 
    WVTL     =      0 
    WXN      =      0 
    PLAMBDA  =      0 
    PVTL     =      0 
    PXN      =      0 
    RNOIA    =  0.577 
    RNOIB    =   0.37 
    SAREF(SA0) = 1.76e-06 m
    SBREF(SB0) = 1.76e-06 m
    WLOD     =      0 m
    KU0      = -1.52e-08 1/m
    KVSAT    =   0.99 
    KVTH0    =  5e-08 m
    TKU0     =      0 
    LLODKU0  =   1.05 
    WLODKU0  =      1 
    LLODVTH  =      1 
    WLODVTH  =      1 
    LKU0     = -6.29e-09 
    WKU0     = -1e-08 
    PKU0     = 1.28e-15 
    LKVTH0   = 3.9e-06 
    WKVTH0   =  9e-08 
    PKVTH0   =      0 
    STK2     =      0 
    LODK2    =      1 
    STETA0   = -2.8e-11 
    LODETA0  =      1 
    LXRCRG1  =      0 
    WXRCRG1  =      0 
    PXRCRG1  =      0 
    LXRCRG2  =      0 
    WXRCRG2  =      0 
    PXRCRG2  =      0 
 Model file: ./Tech90nm/MOSFET_HSPICE_MODEL/L90_SP10_V051.mdl
 Model line:          191
 Model Name: p_10_sp  
 BSIM4 Model (Level 54)
    MOBMOD = 0
    BINUNIT = 1
    PARAMCHK = 1
    CAPMOD = 2
    DIOMOD = 2
    RDSMOD = 0
    TRNQSMOD = 0
    ACNQSMOD = 0
    RBODYMOD = 0
    RGATEMOD = 0
    PERMOD = 1
    GEOMOD = 0
    RGEOMOD = 1
    FNOIMOD = 1
    TNOIMOD = 0
    IGCMOD = 1
    IGBMOD = 1
    STIMOD = 1
    VBFWDMOD = 0
    VERSION =    4.3 
    TOXREF = 2.45e-09 
    TOXE = 2.45e-09 
    TOXP = 1.911e-09 
    TOXM = 2.45e-09 
    DTOX =      0 
    EPSROX =    3.9 
    CDSC =      0 
    CDSCB = -0.008 
    CDSCD =      0 
    CIT = 0.0002775 
    NFACTOR =      2 
    XJ = 1.2e-07 
    VSAT = 1.367e+05 
    A0 =   1.86 
    AGS =  1.467 
    A1 =      0 
    A2 =      1 
    AT = 1.034e+05 
    KETA = -0.05112 
    NSUB =  6e+16 
    NDEP = 3.6e+16 
    NSD =  1e+20 
    NGATE =  1e+20 
    GAMMA1 =      0 
    GAMMA2 =      0 
    VBX =      0 
    VBM =     -3 
    XT = 1.55e-07 
    K1 =  0.225 
    KT1 =  -0.34 
    KT1L = -9.566e-09 
    KT2 =  -0.01 
    K2 = -0.02475 
    K3 = -8.895 
    K3B =    3.9 
    LPE0 = -1.267e-07 
    LPEB = 6.25e-08 
    DVTP0 = 6.062e-06 
    DVTP1 = 0.4489 
    W0 = 2.122e-06 
    DVT0 =  4.686 
    DVT1 = 0.8729 
    DVT2 = 0.01277 
    DVT0W =    0.3 
    DVT1W = 3.966e+06 
    DVT2W = 0.2494 
    DROUT = 0.0004698 
    DSUB =  1.016 
    VTH0 = -0.0581 
    EU =      1 
    UA = 4.279e-10 
    UA1 = -8.35e-10 
    UB = 1.129e-18 
    UB1 = -1.34e-18 
    UC = 8.591e-11 
    UC1 =      0 
    U0 = 0.00926 
    UTE = -1.962 
    VOFF =  -0.12 
    VOFFL = -2.5e-09 
    MINV = 0.2823 
    FPROUT =    300 
    PDITS = 0.2981 
    PDITSD = 0.7176 
    PDITSL =  5e+05 
    DELTA = 0.002389 
    RDSW =    225 
    RDSWMIN =     80 
    RDWMIN =      0 
    RSWMIN =      0 
    RDW =    100 
    RSW =    100 
    PRWG =      0 
    PRWB =    0.2 
    PRT = -167.5 
    ETA0 =   0.03 
    ETAB = -0.5031 
    PCLM =  0.294 
    PDIBLC1 = 5.185e-08 
    PDIBLC2 = 0.00408 
    PDIBLCB =   -0.5 
    PSCBE1 = 6.337e+09 
    PSCBE2 =  0.003 
    PVAG =  1.296 
    WR =      1 
    DWG = -1.724e-08 
    DWB =      0 
    XW =      0 
    XWREF =      0 
    XL = -1e-08 
    XLREF = -1e-08 
    B0 =  7e-07 
    B1 =  6e-07 
    ALPHA0 = 2.14e-08 
    ALPHA1 =   0.07 
    AGIDL = 4.432e-09 
    BGIDL = 4.808e+09 
    CGIDL = 0.009173 
    PHIN =      0 
    EGIDL =  -2.18 
    AIGC = 0.00679 
    BIGC = 0.0008875 
    CIGC = 0.0006343 
    AIGSD = 0.005652 
    BIGSD = 7.805e-05 
    CIGSD = 0.01803 
    AIGBACC = 0.01103 
    BIGBACC = 0.006761 
    CIGBACC =  0.577 
    AIGBINV = 0.009466 
    BIGBINV = 0.00234 
    CIGBINV = 0.001832 
    NIGC = 0.7925 
    NIGBINV =  3.124 
    NIGBACC =  4.396 
    NTOX =      1 
    EIGBINV =  1.633 
    PIGCD =      2 
    POXEDGE =      1 
    XRCRG1 =     12 
    TNOIA =    1.5 
    TNOIB =    3.5 
    NTNOI =      1 
    XRCRG2 =      1 
    BETA0 =     12 
    IJTHDFWD = 0.0035 
    IJTHSFWD = 0.0035 
    IJTHDREV = 0.002175 
    IJTHSREV = 0.002175 
    XJBVD =      1 
    XJBVS =      1 
    BVD =  8.964 
    BVS =  8.964 
    VFB =     -1 
    GBMIN =  1e-12 
    RBDB =     50 
    RBPB =     50 
    RBSB =     50 
    RBPS =     50 
    RBPD =     50 
    CGSL =  2e-10 
    CGDL =  2e-10 
    CKAPPAS =   0.73 
    CKAPPAD =   0.73 
    CF = 9.08e-11 
    CLC =  1e-07 
    CLE =    0.6 
    DWC = -3e-08 
    DLC = 3.42e-08 
    DLCIG = 3.2e-08 
    DWJ =      0 
    VFBCV =     -1 
    ACDE = 0.3509 
    MOIN =    6.7 
    NOFF =  2.936 
    VOFFCV = -0.05257 
    DMCG = 1.6e-07 
    DMCI =  1e-07 
    DMDG =      0 
    DMCGT =      0 
    XGW =      0 
    XGL =      0 
    RSHG =    0.1 
    NGCON =      1 
    TCJ = 0.0008 
    TPB = 0.0014 
    TCJSW = 0.0004 
    TPBSW = 0.0001 
    TCJSWG = 0.007618 
    TPBSWG = 0.001505 
    SK0 =      0 
    SK1 =      0 
    SK2 =      0 
    SL =  2e-06 
    SW =  2e-06 
    K =      0 
    LNFACTOR =  0.266 
    LAGS =  1.836 
    LKETA = -0.00192 
    LK3 =      1 
    LK3B = -0.769 
    LLPE0 = 2.937e-08 
    LLPEB = 1.359e-08 
    LDELTA = 0.002495 
    LETAB = 0.03961 
    LB0 = -5.5e-08 
    LB1 = -5.89e-08 
    LVOFFCV = 0.0004125 
    WKT1 =  0.005 
    WK3B =  2.129 
    WDSUB = 0.01101 
    WUA1 = 3.944e-11 
    WRDSW =     10 
    PAGS = -0.084 
    PK3 = -0.147 
    PDVTP1 =  -0.02 
    TNOM =  298.1 
    CGSO = 4.2e-11 
    CGDO = 4.2e-11 
    CGBO =      0 
    XPART =      1 
    RSH =      8 
    JSS = 1.995e-07 
    JSWS = 1.092e-13 
    JSWGS =  1e-13 
    PBS =   0.73 
    MJS =   0.31 
    PBSWS =   0.99 
    MJSWS =    0.1 
    CJS = 0.00126 
    CJSWS = 1.29e-10 
    NJS =  1.054 
    PBSWGS =    0.6 
    MJSWGS =  0.989 
    CJSWGS = 2.45e-10 
    XTIS =      3 
    JSD = 1.995e-07 
    JSWD = 1.092e-13 
    JSWGD =  1e-13 
    PBD =   0.73 
    MJD =   0.31 
    PBSWD =   0.99 
    MJSWD =    0.1 
    CJD = 0.00126 
    CJSWD = 1.29e-10 
    NJD =  1.054 
    PBSWGD =    0.6 
    MJSWGD =  0.989 
    CJSWGD = 2.45e-10 
    XTID =      3 
    LMLT =      1 
    WMLT =      1 
    LINT = -2.122e-08 
    LL = 5.544e-16 
    LLC = -6.778e-16 
    LLN =   1.05 
    LW = -2.117e-15 
    LWC =      0 
    LWN =      1 
    LWL = 2.376e-23 
    LWLC =      0 
    LMIN =  8e-08 
    LMAX =  5e-05 
    WINT = 8.009e-09 
    WL = 7.165e-16 
    WLC =      0 
    WLN = 0.9735 
    WW = -4.392e-15 
    WWC =  1e-15 
    WWN =  0.994 
    WWL = -1.495e-22 
    WWLC =      0 
    WMIN = 1.2e-07 
    WMAX = 0.0001 
    NOIA = 1.064e+41 
    NOIB = 6.961e+26 
    NOIC = 5.29e+09 
    EM = 4.1e+07 
    EF =  1.103 
    AF =      1 
    KF =      0 
    TRS =      0 
    TRD =      0 
    TEMPMOD  =      0 
    LAMBDA   =      0 
    VTL      =  2e+05 m/s
    LC       =  5e-09 
    XN       =      3 
    LLAMBDA  =      0 
    LVTL     =      0 
    LXN      =      0 
    WLAMBDA  =      0 
    WVTL     =      0 
    WXN      =      0 
    PLAMBDA  =      0 
    PVTL     =      0 
    PXN      =      0 
    RNOIA    =  0.577 
    RNOIB    =   0.37 
    SAREF(SA0) = 1.76e-06 m
    SBREF(SB0) = 1.76e-06 m
    WLOD     =      0 m
    KU0      = 5.3e-07 1/m
    KVSAT    =      1 
    KVTH0    = -8e-10 m
    TKU0     =      0 
    LLODKU0  =   0.68 
    WLODKU0  =   0.85 
    LLODVTH  =    0.8 
    WLODVTH  =      1 
    LKU0     = 0.00058 
    WKU0     = -1.1e-09 
    PKU0     = -2.5e-10 
    LKVTH0   = -1.5e-06 
    WKVTH0   =  6e-07 
    PKVTH0   =      0 
    STK2     =      0 
    LODK2    =      1 
    STETA0   = 3.8e-10 
    LODETA0  =      1 
    LXRCRG1  =      0 
    WXRCRG1  =      0 
    PXRCRG1  =      0 
    LXRCRG2  =      0 
    WXRCRG2  =      0 
    PXRCRG2  =      0 
  **info** (10_bit-ARTHSAR_Final.sp:234) DC voltage reset to initial transient source value in source 0:vclk. new dc=0.0000D+00
  **warning** (10_bit-ARTHSAR_Final.sp:307) Unable to find referenced node comp-; Output variable ignored. Specify a valid node.
  **warning** (10_bit-ARTHSAR_Final.sp:212) Node name cmpo in .IC or .NODESET cannot be found. Nodal initial condition is ignored. Enter a valid node.
  

  **warning** the following singular supplies were terminated to 1 meg resistor 
          supply       node1            node2
(10_bit-ARTHSAR_Final.sp:221)vdda                    0:dda              defined in subckt 0                     0:ss               defined in subckt 0               
(10_bit-ARTHSAR_Final.sp:220)vddac                   0:ddac             defined in subckt 0                     0:ss               defined in subckt 0               
(10_bit-ARTHSAR_Final.sp:219)vddc                    0:ddc              defined in subckt 0                     0:ss               defined in subckt 0               
             
 Warning:'No DC path nodes' occurs 4 times
 No DC path from the following nodes,connected with gdcpath:
 -----------------------
 |Node      |Subckt    |
 |----------+----------|
 |xinit.b8  |adsbn     |
 |xinit.b9  |adsbn     |
 |xinit.bd8 |adsbn     |
 |xinit.bd9 |adsbn     |
 -----------------------
              
      
 **info** set option symb=1 internally to help for convergence.
 *****************************************************************
 ******  option summary
 ******
 runlvl  = 5         bypass  = 2.0000000  
  Opening plot unit= 15
 file=10_bit-ARTHSAR_Final.pa0

 ******  
 10_bit_arthsar_final

 ****** operating point information tnom=  25.000 temp=  27.000 ******
 ****** operating point status is all       simulation time is     0.        
      node    =voltage           node    =voltage

 +  0:a0      =   0.9999647    0:a0d     =   0.9999967 
 +  0:a1      = 1.948239e-05   0:a1d     =   0.4398996 
 +  0:a2      = 2.090823e-05   0:a2d     =   0.9999953 
 +  0:a3      = 2.066781e-05   0:a3d     = 1.873162e-05
 +  0:a4      =   0.9999592    0:a4d     = 1.873088e-05
 +  0:a5      = 2.094278e-05   0:a5d     = 1.873162e-05
 +  0:a6      =   0.9999591    0:a6d     =   0.9999939 
 +  0:a7      =   0.9999591    0:a7d     =   0.9999939 
 +  0:a8      = 1.947394e-05   0:a8d     = 1.736237e-05
 +  0:a9      = 1.957839e-05   0:a9d     =   0.9999967 
 +  0:b0      = 8.658760e-06   0:b1      = 9.345203e-06
 +  0:b2      = 9.345231e-06   0:b3      = 9.345205e-06
 +  0:b4      = 9.296783e-06   0:b5      =   0.9999830 
 +  0:b6      = 9.345230e-06   0:b7      = 9.345203e-06
 +  0:b8      = 9.343879e-06   0:b9      = 9.343852e-06
 +  0:b_0     = 4.495393e-06   0:bit0    = 9.765625e-04
 +  0:bit1    = 9.765625e-04   0:bit2    = 9.765625e-04
 +  0:bit3    = 9.765625e-04   0:bit4    = 1.660156e-02
 +  0:bit5    = 4.785156e-02   0:bit6    =   0.1103516 
 +  0:bit7    =   0.2353516    0:bit8    =   0.2353516 
 +  0:bout    =   0.2353516    0:bout1   =   0.2353516 
 +  0:bx_0    = 3.862803e-06   0:car0    = 4.377750e-06
 +  0:car1    = 4.377750e-06   0:car2    = 4.377750e-06
 +  0:car3    = 4.502410e-06   0:car4    = 4.502410e-06
 +  0:car5    = 4.502410e-06   0:car6    = 4.502410e-06
 +  0:car7    = 4.377750e-06   0:car8    = 4.377750e-06
 +  0:car9    = 3.587983e-06   0:clk     =   0.        
 +  0:clkb    =   1.0000000    0:clkd    =   0.9999477 
 +  0:clkdd   = 1.789335e-05   0:clkg    = 7.633564e-06
 +  0:clkgc   = 3.582925e-06   0:clks    = 3.581902e-06
 +  0:clksa   = 3.583100e-06   0:clr     =   1.0000000 
 +  0:com     =   0.9000000    0:comp+   = 1.140579e-05
 +  0:compb+  = 6.984431e-09   0:copb+   =   0.        
 +  0:db0     =   1.0000000    0:db1     =   0.        
 +  0:db2     =   0.           0:db3     =   0.        
 +  0:db4     =   1.0000000    0:db5     =   1.0000000 
 +  0:db6     =   1.0000000    0:db7     =   1.0000000 
 +  0:db8     =   0.           0:db9     =   0.        
 +  0:dd      =   1.0000000    0:dda     =   1.0000000 
 +  0:ddac    =   1.0000000    0:ddc     =   1.0000000 
 +  0:ddd     =   1.0000000    0:dr0     = 3.871171e-06
 +  0:dr1     =   0.9999845    0:dr2     =   0.9999845 
 +  0:dr3     =   0.9999948    0:dr4     = 5.019740e-06
 +  0:dr5     = 5.019740e-06   0:dr6     = 5.019740e-06
 +  0:dr7     = 5.019740e-06   0:dr8     =   0.9999948 
 +  0:dr9     =   0.9999948    0:drv0    =   0.9999856 
 +  0:drv1    = 3.583255e-06   0:drv2    = 3.583255e-06
 +  0:drv3    = 4.726159e-06   0:drv4    =   0.9999956 
 +  0:drv5    =   0.9999956    0:drv6    =   0.9999956 
 +  0:drv7    =   0.9999956    0:drv8    = 4.726159e-06
 +  0:drv9    = 4.726159e-06   0:in      =   0.7121320 
 +  0:nro     = 4.124831e-06   0:nrob    =   0.9999856 
 +  0:pre     =   1.0000000    0:q0      =   0.9999725 
 +  0:q0!     = 1.874224e-05   0:q1      =   0.9999725 
 +  0:q1!     = 1.874224e-05   0:q2      =   0.9999725 
 +  0:q2!     = 1.874224e-05   0:q3      =   0.9999725 
 +  0:q3!     = 1.785834e-05   0:rstz    =   1.0000000 
 +  0:sb0     = 3.582925e-06   0:sb1     = 3.818355e-06
 +  0:sb2     = 3.817330e-06   0:sb3     = 3.817330e-06
 +  0:sb4     = 3.817330e-06   0:sb5     = 3.818355e-06
 +  0:sb6     = 3.817330e-06   0:sb7     = 3.818355e-06
 +  0:sb8     = 3.818530e-06   0:sb9     =   0.9996084 
 +  0:ss      =   0.           0:sum0    =   0.9999847 
 +  0:sum1    = 8.667547e-06   0:sum2    = 8.667547e-06
 +  0:sum3    = 9.439498e-06   0:sum4    =   0.9999827 
 +  0:sum5    =   0.9999827    0:sum6    =   0.9999827 
 +  0:sum7    =   0.9999827    0:sum8    = 9.439498e-06
 +  0:sum9    = 9.439498e-06   0:vdac    =   0.2500000 
 +  0:vsh     =   0.7121320    0:z1      =   0.9999707 
 +  0:z1b     = 4.131887e-06   1:b8      =   0.4301112 
 +  1:b9      =   0.4301112    1:bd8     =   0.4648577 
 +  1:bd9     =   0.4648577    1:o2      =   0.9999845 
 +  1:o3      =   0.9999833    1:o4      =   0.9999833 
 +  1:o5      =   0.9999833    1:o6      =   0.9999833 
 +  1:o7      =   0.9999833    1:o8      =   0.9999833 
 +  1:o9      =   0.9999833    1:ob2     = 3.888055e-06
 +  1:ob3     = 3.888167e-06   1:ob4     = 3.825836e-06
 +  1:ob5     = 3.825836e-06   1:ob6     = 3.825836e-06
 +  1:ob7     = 3.888165e-06   1:ob8     = 3.825836e-06
 +  1:ob9     = 3.888165e-06   1:sbn9    = 3.943259e-06
 +  1:x3      = 8.458364e-06   1:x4      = 8.458364e-06
 +  1:x5      = 8.457982e-06   1:x6      =   0.9999889 
 +  1:x7      = 8.457982e-06   1:x8      =   0.9999872 
 +  1:x9      =   0.9996089    2:q0      =   0.9999755 
 +  2:q1      =   0.9999727    2:q2      =   0.9999727 
 +  2:q3      =   0.9999727    2:q4      =   0.9999727 
 +  2:q5      =   0.9999727    2:q6      =   0.9999727 
 +  2:q7      =   0.9999727    2:q8      =   0.9999727 
 +  2:q9      = 1.789033e-05   4:x1      =   0.9999839 
 +  4:x2      =   0.9999839    5:out1    =   0.9999778 
 +  5:out2    =   0.9999740    5:out3    =   0.9999956 
 +  5:out4    = 1.788878e-05   5:q!      =   0.9999755 
 +  6:n1      = 3.253346e-06   6:ou      =   0.9999860 
 +  7:n1      = 5.356536e-02   7:ou      =   0.9999981 
 +  8:x1      =   0.9999845    8:x1b     = 3.627404e-06
 +  8:x2      = 8.373520e-06   9:out1    = 1.736152e-05
 +  9:out2    =   0.9999945    9:out3    =   0.9999784 
 +  9:out4    =   0.9999784    9:q!      = 1.736442e-05
 + 10:clkb    = 3.581721e-06  10:s1      = 3.889060e-07
 + 10:s2      = 3.691249e-06  10:s3      = 1.178612e-05
 + 10:x       =   0.9999845   10:y       =   0.9999845 
 + 11:xr0     = 9.143716e-06  11:xr1     = 9.144453e-06
 + 11:xr2     = 9.144453e-06  11:xr3     = 9.144453e-06
 + 11:xr4     = 9.143716e-06  11:xr5     =   0.9999855 
 + 11:xr6     = 9.143716e-06  11:xr7     = 9.143716e-06
 + 11:xr8     = 9.144453e-06  11:xr9     = 9.144453e-06
 + 12:out1    = 1.736153e-05  12:out2    =   0.9999945 
 + 12:out3    =   0.9999786   12:out4    =   0.9999784 
 + 12:q!      =   0.9999755   13:out1    = 1.736153e-05
 + 13:out2    =   0.9999945   13:out3    =   0.9999786 
 + 13:out4    =   0.9999784   13:q!      =   0.9999755 
 + 14:out1    =   0.9999778   14:out2    =   0.9999742 
 + 14:out3    =   0.9999956   14:out4    = 1.788360e-05
 + 14:q!      = 1.736359e-05  15:out1    =   0.9999778 
 + 15:out2    =   0.9999742   15:out3    =   0.9999956 
 + 15:out4    = 1.788360e-05  15:q!      = 1.736359e-05
 + 16:out1    =   0.9999778   16:out2    =   0.9999740 
 + 16:out3    =   0.9999956   16:out4    = 1.788359e-05
 + 16:q!      =   0.9999755   17:out1    =   0.9999778 
 + 17:out2    =   0.9999742   17:out3    =   0.9999956 
 + 17:out4    = 1.788360e-05  17:q!      = 1.736357e-05
 + 18:out1    = 1.736153e-05  18:out2    =   0.9999945 
 + 18:out3    =   0.9999786   18:out4    =   0.9999784 
 + 18:q!      =   0.9999755   19:out1    = 1.736153e-05
 + 19:out2    =   0.9999945   19:out3    =   0.9999786 
 + 19:out4    =   0.9999784   19:q!      =   0.9999755 
 + 20:out1    = 1.736153e-05  20:out2    =   0.9999945 
 + 20:out3    =   0.9999786   20:out4    =   0.9999784 
 + 20:q!      =   0.9999755   21:out1    =   0.9999778 
 + 21:out2    =   0.9999742   21:out3    =   0.9999956 
 + 21:out4    = 1.788331e-05  21:q!      = 1.736277e-05
 + 23:n1      = 5.357539e-02  23:ou      =   0.9999981 
 + 24:n1      =   0.8912937   24:ou      =   0.9999878 
 + 26:n1      = 3.254404e-06  26:ou      =   0.9999860 
 + 27:dno     =   0.9999681   27:ouno    =   0.9999367 
 + 28:out1    =   0.9999784   28:out2    = 1.821770e-05
 + 28:out3    =   0.9999790   28:out4    =   0.9999808 
 + 28:q!      = 1.736115e-05  29:out1    = 1.736194e-05
 + 29:out2    =   0.9999708   29:out3    = 1.776006e-05
 + 29:out4    =   0.9999956   29:q!      =   0.9999967 
 + 30:out1    =   0.9999967   30:out2    = 1.801181e-05
 + 30:out3    =   0.9999962   30:out4    = 1.788785e-05
 + 30:q!      = 1.735902e-05  31:out1    =   0.9999967 
 + 31:out2    = 1.801181e-05  31:out3    =   0.9999962 
 + 31:out4    = 1.788785e-05  31:q!      = 1.735902e-05
 + 32:out1    = 1.736194e-05  32:out2    =   0.9999708 
 + 32:out3    = 1.776006e-05  32:out4    =   0.9999956 
 + 32:q!      =   0.9999967   33:out1    = 1.736520e-05
 + 33:out2    =   0.9999708   33:out3    = 1.776274e-05
 + 33:out4    =   0.9999731   33:q!      =   0.9999967 
 + 34:out1    = 1.736194e-05  34:out2    =   0.9999708 
 + 34:out3    = 1.776006e-05  34:out4    =   0.9999956 
 + 34:q!      =   0.9999967   35:out1    =   0.9999784 
 + 35:out2    = 1.821770e-05  35:out3    =   0.9999790 
 + 35:out4    =   0.9999808   35:q!      = 1.736137e-05
 + 36:out1    =   0.4395459   36:out2    =   0.4257844 
 + 36:out3    =   0.2420333   36:out4    =   0.9999955 
 + 36:q!      =   0.9960428   37:out1    =   0.9999967 
 + 37:out2    = 1.801181e-05  37:out3    =   0.9999962 
 + 37:out4    = 1.788701e-05  37:q!      = 1.735861e-05
 + 58:x       =   0.9236097   58:x1      =   0.4189640 
 + 58:x2      =   0.1279016   59:x       =   0.9236097 
 + 59:x1      =   0.4189640   59:x2      =   0.1279016 
 + 61:n1      = 3.254192e-06  61:ou      =   0.9999860 
 + 62:x       =   0.9999872   62:x1      =   0.9999874 
 + 62:x2      = 8.456745e-06  63:dno     =   0.9999924 
 + 63:ouno    = 3.927376e-06  65:n1      =   0.8912833 
 + 65:ou      =   0.9999878   66:x       =   0.9999987 
 + 66:x1      =   0.9999872   66:x2      =   0.9999872 
 + 67:dno     =   0.9999925   67:ouno    = 3.889965e-06
 + 69:n1      = 5.358190e-02  69:ou      =   0.9999981 
 + 70:x       =   0.9999855   70:x1      = 8.441478e-06
 + 70:x2      =   0.9999889   71:dno     =   0.9999925 
 + 71:ouno    = 3.889965e-06  73:n1      =   0.8912847 
 + 73:ou      =   0.9999878   74:x       =   0.9999987 
 + 74:x1      =   0.9999872   74:x2      =   0.9999872 
 + 75:dno     =   0.9999925   75:ouno    = 3.889965e-06
 + 77:n1      = 5.358190e-02  77:ou      =   0.9999981 
 + 78:x       = 8.812715e-06  78:x1      =   0.9999855 
 + 78:x2      =   0.9999855   79:dno     =   0.9999925 
 + 79:ouno    = 3.889965e-06  81:n1      = 5.358190e-02
 + 81:ou      =   0.9999981   82:x       = 8.812715e-06
 + 82:x1      =   0.9999855   82:x2      =   0.9999855 
 + 83:dno     =   0.9999925   83:ouno    = 3.889965e-06
 + 85:n1      = 5.358190e-02  85:ou      =   0.9999981 
 + 86:dno     =   0.9999925   86:ouno    = 3.889965e-06
 + 88:n1      =   0.8912939   88:ou      =   0.9999878 
 + 89:dno     =   0.9999925   89:ouno    = 3.889965e-06
 + 91:n1      =   0.8912939   91:ou      =   0.9999878 
 + 92:selb    = 3.909755e-06  92:x1      =   0.9999979 
 + 92:x2      =   0.9999872   93:out1    = 1.736153e-05
 + 93:out2    =   0.9999945   93:out3    =   0.9999786 
 + 93:out4    =   0.9999784   93:q!      =   0.9999755 
 + 94:selb    = 3.909755e-06  94:x1      =   0.9999979 
 + 94:x2      =   0.9999872   95:out1    = 1.736152e-05
 + 95:out2    =   0.9999945   95:out3    =   0.9999784 
 + 95:out4    =   0.9999784   95:q!      = 1.736413e-05
 + 96:selb    = 3.909419e-06  96:x1      =   0.9999855 
 + 96:x2      =   0.9999872   97:out1    = 1.736152e-05
 + 97:out2    =   0.9999945   97:out3    =   0.9999784 
 + 97:out4    =   0.9999784   97:q!      = 1.736413e-05
 + 98:selb    = 3.909419e-06  98:x1      =   0.9999855 
 + 98:x2      =   0.9999872   99:out1    = 1.736152e-05
 + 99:out2    =   0.9999945   99:out3    =   0.9999784 
 + 99:out4    =   0.9999784   99:q!      = 1.736413e-05
 +100:selb    = 3.909419e-06 100:x1      =   0.9999856 
 +100:x2      = 8.460459e-06 101:out1    =   0.9999778 
 +101:out2    =   0.9999742  101:out3    =   0.9999956 
 +101:out4    = 1.788356e-05 101:q!      = 1.736160e-05
 +102:selb    = 3.909419e-06 102:x1      =   0.9999855 
 +102:x2      =   0.9999872  103:out1    = 1.736152e-05
 +103:out2    =   0.9999945  103:out3    =   0.9999784 
 +103:out4    =   0.9999784  103:q!      = 1.736413e-05
 +104:selb    = 3.909419e-06 104:x1      =   0.9999855 
 +104:x2      =   0.9999872  105:out1    = 1.736152e-05
 +105:out2    =   0.9999945  105:out3    =   0.9999784 
 +105:out4    =   0.9999784  105:q!      = 1.736413e-05
 +106:selb    = 3.909419e-06 106:x1      =   0.9999855 
 +106:x2      =   0.9999872  107:out1    = 1.736152e-05
 +107:out2    =   0.9999945  107:out3    =   0.9999784 
 +107:out4    =   0.9999784  107:q!      = 1.736413e-05
 +108:selb    = 3.909419e-06 108:x1      =   0.9999855 
 +108:x2      =   0.9999872  109:out1    = 1.736152e-05
 +109:out2    =   0.9999945  109:out3    =   0.9999784 
 +109:out4    =   0.9999784  109:q!      = 1.736413e-05
 +110:selb    = 3.909419e-06 110:x1      =   0.9999855 
 +110:x2      =   0.9999872  111:out1    = 1.736152e-05
 +111:out2    =   0.9999945  111:out3    =   0.9999784 
 +111:out4    =   0.9999784  111:q!      = 1.736374e-05
 +112:out1    = 1.736153e-05 112:out2    =   0.9999945 
 +112:out3    =   0.9999784  112:out4    =   0.9999784 
 +113:out1    = 1.736153e-05 113:out2    =   0.9999945 
 +113:out3    =   0.9999784  113:out4    =   0.9999784 
 +114:out1    = 1.736153e-05 114:out2    =   0.9999945 
 +114:out3    =   0.9999784  114:out4    =   0.9999784 
 +115:out1    = 1.736153e-05 115:out2    =   0.9999945 
 +115:out3    =   0.9999784  115:out4    =   0.9999784 
 +116:n1      = 4.405693e-06 116:ou      = 8.422965e-06
 +117:n1      = 4.405693e-06 117:ou      = 8.422965e-06
 +118:n1      = 4.404470e-06 118:ou      = 8.420503e-06
 +119:n1      = 4.702441e-06 119:n2      = 8.988762e-06
 +120:n1      = 3.733141e-06 120:n2      =   0.8945452 
 +121:n1      = 8.261873e-07 121:n2      = 5.353726e-02
 +122:n1      = 6.379005e-06 122:n2      = 1.234206e-05
 +123:n1      = 6.380556e-06 123:n2      = 1.234504e-05
 +124:n1      = 4.702467e-06 124:n2      = 8.988732e-06
 +127:x1      = 8.116942e-06 127:x2      =   0.9999878 
 +129:x1      =   0.9999356  129:x2      =   0.9999355 
 +130:dn      =   0.9999925  131:n1      = 6.203334e-06
 +131:n2      = 1.199049e-05 132:n1      = 8.261936e-07
 +132:n2      = 5.353683e-02 133:n1      = 3.733155e-06
 +133:n2      =   0.8945461  134:n1      = 3.733581e-06
 +134:n2      =   0.8945427  135:n1      = 4.702372e-06
 +135:n2      = 8.988547e-06 136:n1      = 6.204254e-06
 +136:n2      = 1.199241e-05 142:x       =   0.9999987 
 +142:x1      =   0.9999872  142:x2      =   0.9999872 
 +143:n1      =   0.9999872  143:n2      = 3.862627e-06
 +143:n3      = 3.862827e-06 144:x       =   0.9999987 
 +144:x1      =   0.9999872  144:x2      =   0.9999872 
 +145:n1      = 9.144453e-06 145:n2      = 3.861602e-06
 +145:n3      = 3.861626e-06 146:x       =   0.9999987 
 +146:x1      =   0.9999872  146:x2      =   0.9999872 
 +147:n1      = 9.144453e-06 147:n2      = 3.861602e-06
 +147:n3      = 3.861626e-06 148:x       =   0.9999987 
 +148:x1      =   0.9999872  148:x2      =   0.9999872 
 +149:n1      = 9.144453e-06 149:n2      = 3.861602e-06
 +149:n3      = 3.861626e-06 150:x       =   0.9999987 
 +150:x1      =   0.9999872  150:x2      =   0.9999872 
 +151:n1      =   0.9999872  151:n2      = 3.862627e-06
 +151:n3      = 3.862827e-06 152:x       =   0.9999872 
 +152:x1      =   0.9999874  152:x2      = 8.458076e-06
 +153:n1      =   0.9999855  153:n2      = 3.862627e-06
 +153:n3      = 3.862652e-06 154:x       =   0.9999987 
 +154:x1      =   0.9999872  154:x2      =   0.9999872 
 +155:n1      =   0.9999872  155:n2      = 3.862627e-06
 +155:n3      = 3.862827e-06 156:x       =   0.9999987 
 +156:x1      =   0.9999872  156:x2      =   0.9999872 
 +157:n1      =   0.9999872  157:n2      = 3.862627e-06
 +157:n3      = 3.862827e-06 158:x       =   0.9999987 
 +158:x1      =   0.9999872  158:x2      =   0.9999872 
 +159:n1      = 9.144453e-06 159:n2      = 3.861602e-06
 +159:n3      = 3.861626e-06 160:x       =   0.9999987 
 +160:x1      =   0.9999872  160:x2      =   0.9999872 
 +161:n1      = 9.144453e-06 161:n2      = 3.861602e-06
 +161:n3      = 3.861626e-06 162:n1      = 6.203337e-06
 +162:n2      = 1.199050e-05 163:n1      = 8.263167e-07
 +163:n2      = 5.353126e-02 164:n1      = 3.733960e-06
 +164:n2      =   0.8945397  165:n1      = 3.734142e-06
 +165:n2      =   0.8945383  166:n1      = 6.942270e-06
 +166:n2      = 1.346837e-05 167:n1      = 4.702651e-06
 +167:n2      = 8.989164e-06 168:n1      = 6.203337e-06
 +168:n2      = 1.199050e-05 169:n1      = 8.263167e-07
 +169:n2      = 5.353126e-02 170:n1      = 3.733960e-06
 +170:n2      =   0.8945397  171:n1      = 3.734142e-06
 +171:n2      =   0.8945383  172:n1      = 6.907454e-06
 +172:n2      = 1.339874e-05 173:n1      = 4.702637e-06
[...]
  gam eff    0.2250000     0.2250000     0.1569000     0.2250000 
  gm       6.473933e-08  6.473934e-08  1.722715e-09  6.471894e-08
  gds      1.501726e-09  1.501726e-09  6.681189e-04  1.501235e-09
  gmb      6.110287e-09  6.110288e-09  3.369049e-10  6.108395e-09
  cdtot    4.804866e-16  4.804866e-16  1.071550e-15  4.804859e-16
  cgtot    3.545551e-16  3.545551e-16  5.062960e-16  3.545524e-16
  cstot    6.716315e-16  6.716315e-16  7.662067e-16  6.716290e-16
  cbtot    8.610482e-16  8.610482e-16  5.566906e-16  8.610481e-16
  cgs      1.928125e-16  1.928125e-16  2.656270e-16  1.928097e-16
  cgd      1.294234e-16  1.294234e-16  2.492866e-16  1.294230e-16



 subckt   x4bfa.xfa8.xa x4bfa.xfa8.xa x4bfa.xfa8.x_ x4bfa.xfa8.x_
 element   661:mni1      661:mpi1      662:mni1      662:mpi1    
 model       0:n_10_sp     0:p_10_sp     0:n_10_sp     0:p_10_sp 
 region   Linear        Subth         Linear        Subth        
  id       2.559952e-09 -2.169246e-09  2.901981e-09 -2.173227e-09
  ibs     -3.187569e-20  1.144080e-20 -3.589171e-20  1.146179e-20
  ibd     -7.695025e-18  1.999993e-12 -8.723259e-18  1.999992e-12
  vgs        0.9999981  -1.862477e-06    0.9999367  -6.332742e-05
  vds      3.861626e-06   -0.9999961   4.377750e-06   -0.9999956 
  vbs        0.            0.            0.            0.        
  vth        0.2388503    -0.2421318     0.2388503    -0.2421318 
  vdsat      0.4377006  -4.262607e-02    0.4376685  -4.262614e-02
  vod        0.7611478     0.2421300     0.7610864     0.2420685 
  beta     1.393676e-03  6.793058e-04  1.393713e-03  6.793060e-04
  gam eff    0.1569000     0.2250000     0.1569000     0.2250000 
  gm       1.722726e-09  6.471894e-08  1.953243e-09  6.483552e-08
  gds      6.681189e-04  1.501235e-09  6.680904e-04  1.503997e-09
  gmb      3.369070e-10  6.108395e-09  3.819352e-10  6.119193e-09
  cdtot    1.071550e-15  4.804859e-16  1.071542e-15  4.804873e-16
  cgtot    5.062960e-16  3.545524e-16  5.062955e-16  3.545669e-16
  cstot    7.662067e-16  6.716290e-16  7.662037e-16  6.716434e-16
  cbtot    5.566906e-16  8.610481e-16  5.566905e-16  8.610466e-16
  cgs      2.656270e-16  1.928097e-16  2.656279e-16  1.928253e-16
  cgd      2.492866e-16  1.294230e-16  2.492851e-16  1.294245e-16



 subckt   x4bfa.xfa9.xo x4bfa.xfa9.xo x4bfa.xfa9.xo x4bfa.xfa9.xo
 element   663:mnn1-2    663:mnn2-2    663:mpn1-2    663:mpn2-2  
 model       0:n_10_sp     0:n_10_sp     0:p_10_sp     0:p_10_sp 
 region   Subth         Subth         Linear        Linear       
  id       5.552710e-10  5.558808e-10 -3.873159e-10 -3.873194e-10
  ibs     -2.936979e-21 -1.071421e-13  2.466084e-21  2.466117e-21
  ibd     -1.071421e-13 -1.999998e-12  2.585076e-18  2.585076e-18
  vgs      1.957839e-05 -5.356180e-02   -0.9999804    -0.9999909 
  vds      5.357095e-02    0.9464278  -1.293340e-06 -1.293340e-06
  vbs        0.         -5.357095e-02    0.            0.        
  vth        0.2649807     0.2486885    -0.2387308    -0.2387308 
  vdsat    3.556791e-02  3.597804e-02   -0.5808266    -0.5808339 
  vod       -0.2649611    -0.3022503    -0.7612497    -0.7612601 
  beta     2.827556e-03  2.819208e-03  5.865811e-04  5.865796e-04
  gam eff    0.1569000     0.1569000     0.2250000     0.2250000 
  gm       1.748932e-08  1.781643e-08  3.361745e-10  3.361705e-10
  gds      4.038023e-09  7.914471e-10  2.999430e-04  2.999457e-04
  gmb      1.521149e-09  1.321790e-09  6.304191e-11  6.304175e-11
  cdtot    6.395910e-16  4.978644e-16  1.720088e-15  1.720090e-15
  cgtot    4.606872e-16  4.187861e-16  8.310779e-16  8.310779e-16
  cstot    6.582115e-16  6.406197e-16  1.263516e-15  1.263517e-15
  cbtot    9.003237e-16  7.834000e-16  9.836779e-16  9.836779e-16
  cgs      2.163668e-16  2.124853e-16  4.191506e-16  4.191504e-16
  cgd      2.121821e-16  1.740125e-16  4.326606e-16  4.326609e-16



 subckt   x4bfa.xfa9.xo x4bfa.xfa9.xo x4bfa.xfa9.xo x4bfa.xfa9.xo
 element   664:mnn1-2    664:mnn2-2    664:mpn1-2    664:mpn2-2  
 model       0:n_10_sp     0:n_10_sp     0:p_10_sp     0:p_10_sp 
 region   Subth         Subth         Linear        Subth        
  id       3.189689e-09  3.233707e-09 -3.821109e-09 -2.565061e-13
  ibs     -1.687115e-20 -1.782560e-12  2.057622e-20  1.352704e-24
  ibd     -1.782560e-12 -1.999975e-12  2.549984e-17  2.551956e-17
  vgs      1.957839e-05    0.1087190    -0.9999804  -1.293340e-06
  vds        0.8912797     0.1087075  -1.275971e-05 -1.275971e-05
  vbs        0.           -0.8912797     0.            0.        
  vth        0.2455034     0.3268815    -0.2387308    -0.2387308 
  vdsat    3.558111e-02  4.014372e-02   -0.5808266  -4.262885e-02
  vod       -0.2454839    -0.2181625    -0.7612496     0.2387295 
  beta     2.814635e-03  2.948968e-03  5.865811e-04  6.807623e-04
  gam eff    0.1569000     0.1569000     0.2250000     0.2250000 
  gm       9.965277e-08  9.880161e-08  3.316614e-09  7.642012e-12
  gds      4.572840e-09  1.113762e-08  2.999376e-04  2.009972e-08
  gmb      7.777141e-09  5.194691e-09  6.219479e-10  8.645638e-13
  cdtot    5.069906e-16  5.382029e-16  1.720058e-15  6.701205e-16
  cgtot    4.273454e-16  4.598820e-16  8.310775e-16  4.148568e-16
  cstot    6.601779e-16  5.560445e-16  1.263509e-15  6.721214e-16
  cbtot    8.031789e-16  6.739798e-16  9.836729e-16  9.871757e-16
  cgs      2.184718e-16  2.263613e-16  4.191562e-16  1.935342e-16
  cgd      1.768559e-16  2.139168e-16  4.326546e-16  1.892285e-16



 subckt   x4bfa.xfa9.xo x4bfa.xfa9.xo x4bfa.xfa9.xo x4bfa.xfa9.xo
 element   665:mnn1-2    665:mnn2-2    665:mpn1-2    665:mpn2-2  
 model       0:n_10_sp     0:n_10_sp     0:p_10_sp     0:p_10_sp 
 region   Subth         Subth         Linear        Subth        
  id       3.188689e-09  3.232709e-09 -3.820105e-09 -2.564364e-13
  ibs     -1.686586e-20 -1.782577e-12  2.057093e-20  1.352704e-24
  ibd     -1.782577e-12 -1.999975e-12  2.549290e-17  2.551262e-17
  vgs      9.144453e-06    0.1087103    -0.9999909  -1.293340e-06
  vds        0.8912884     0.1086989  -1.275624e-05 -1.275624e-05
  vbs        0.           -0.8912884     0.            0.        
  vth        0.2455033     0.3268822    -0.2387308    -0.2387308 
  vdsat    3.558110e-02  4.014374e-02   -0.5808338  -4.262885e-02
  vod       -0.2454941    -0.2181719    -0.7612600     0.2387295 
  beta     2.814634e-03  2.948968e-03  5.865796e-04  6.807623e-04
  gam eff    0.1569000     0.1569000     0.2250000     0.2250000 
  gm       9.962208e-08  9.877169e-08  3.315673e-09  7.639934e-12
  gds      4.571394e-09  1.113480e-08  2.999403e-04  2.009972e-08
  gmb      7.774731e-09  5.193102e-09  6.217773e-10  8.643287e-13
  cdtot    5.069895e-16  5.382029e-16  1.720059e-15  6.701205e-16
  cgtot    4.273435e-16  4.598798e-16  8.310776e-16  4.148568e-16
  cstot    6.601763e-16  5.560420e-16  1.263509e-15  6.721214e-16
  cbtot    8.031787e-16  6.739792e-16  9.836729e-16  9.871757e-16
  cgs      2.184700e-16  2.263589e-16  4.191560e-16  1.935342e-16
  cgd      1.768554e-16  2.139169e-16  4.326549e-16  1.892285e-16



 subckt   x4bfa.xfa9.xo x4bfa.xfa9.xo x4bfa.xfa9.xo x4bfa.xfa9.xo
 element   666:mnn1-2    666:mnn2-2    666:mpn1-2    666:mpn2-2  
 model       0:n_10_sp     0:n_10_sp     0:p_10_sp     0:p_10_sp 
 region   Linear        Linear        Subth         Subth        
  id       5.777940e-09  5.307052e-09 -2.169944e-09 -2.169944e-09
  ibs     -3.180647e-20 -9.562244e-18  1.144448e-20  1.144448e-20
  ibd     -9.503613e-18 -1.826215e-17  1.999982e-12  1.999982e-12
  vgs        0.9999872     0.9999825  -1.275971e-05 -1.275624e-05
  vds      4.766446e-06  4.378007e-06   -0.9999909    -0.9999909 
  vbs        0.         -4.766446e-06    0.            0.        
  vth        0.2663404     0.2663408    -0.2421318    -0.2421318 
  vdsat      0.4271263     0.4271236  -4.262609e-02 -4.262609e-02
  vod        0.7336469     0.7336416     0.2421190     0.2421190 
  beta     2.475459e-03  2.475465e-03  6.793059e-04  6.793059e-04
  gam eff    0.1569000     0.1569000     0.2250000     0.2250000 
  gm       3.915218e-09  3.596190e-09  6.473936e-08  6.473935e-08
  gds      1.220027e-03  1.220023e-03  1.501726e-09  1.501726e-09
  gmb      8.377470e-10  7.694719e-10  6.110289e-09  6.110289e-09
  cdtot    1.896918e-15  1.896916e-15  4.804866e-16  4.804866e-16
  cgtot    9.038096e-16  9.038096e-16  3.545551e-16  3.545551e-16
  cstot    1.337212e-15  1.337210e-15  6.716315e-16  6.716315e-16
  cbtot    9.094425e-16  9.094401e-16  8.610482e-16  8.610482e-16
  cgs      4.793758e-16  4.793756e-16  1.928125e-16  1.928125e-16
  cgd      4.446909e-16  4.446909e-16  1.294234e-16  1.294234e-16



 subckt   x4bfa.xfa9.xo x4bfa.xfa9.xo x4bfa.xfa9.xo x4bfa.xfa9.xo
 element   667:mnn1-2    667:mnn2-2    667:mpn1-2    667:mpn2-2  
 model       0:n_10_sp     0:n_10_sp     0:p_10_sp     0:p_10_sp 
 region   Subth         Subth         Linear        Linear       
  id       5.550500e-10  5.556600e-10 -3.872099e-10 -3.872083e-10
  ibs     -2.935810e-21 -1.071642e-13  2.465546e-21  2.465531e-21
  ibd     -1.071642e-13 -1.999998e-12  2.584334e-18  2.584334e-18
  vgs      4.377750e-06 -5.357288e-02   -0.9999956    -0.9999909 
  vds      5.358203e-02    0.9464167  -1.292969e-06 -1.292969e-06
  vbs        0.         -5.358203e-02    0.            0.        
  vth        0.2649804     0.2486897    -0.2387308    -0.2387308 
  vdsat    3.556791e-02  3.597812e-02   -0.5808372    -0.5808339 
  vod       -0.2649760    -0.3022625    -0.7612649    -0.7612601 
  beta     2.827555e-03  2.819210e-03  5.865790e-04  5.865796e-04
  gam eff    0.1569000     0.1569000     0.2250000     0.2250000 
  gm       1.748248e-08  1.780944e-08  3.360722e-10  3.360740e-10
  gds      4.035066e-09  7.911408e-10  2.999470e-04  2.999457e-04
  gmb      1.520546e-09  1.321262e-09  6.302359e-11  6.302366e-11
  cdtot    6.395871e-16  4.978644e-16  1.720090e-15  1.720090e-15
  cgtot    4.606848e-16  4.187853e-16  8.310779e-16  8.310779e-16
  cstot    6.582098e-16  6.406162e-16  1.263517e-15  1.263517e-15
  cbtot    9.003215e-16  7.833973e-16  9.836779e-16  9.836779e-16
  cgs      2.163650e-16  2.124845e-16  4.191503e-16  4.191504e-16
  cgd      2.121810e-16  1.740125e-16  4.326610e-16  4.326609e-16



 subckt   x4bfa.xfa9.xo x4bfa.xfa9.xo x4bfa.xfa9.xo x4bfa.xfa9.xo
 element   668:mnn1-2    668:mnn2-2    668:mpn1-2    668:mpn2-2  
 model       0:n_10_sp     0:n_10_sp     0:p_10_sp     0:p_10_sp 
 region   Subth         Subth         Linear        Subth        
  id       3.188233e-09  3.232253e-09 -3.819660e-09 -2.564055e-13
  ibs     -1.686344e-20 -1.782585e-12  2.056859e-20  1.352260e-24
  ibd     -1.782585e-12 -1.999975e-12  2.548983e-17  2.550955e-17
  vgs      4.377750e-06    0.1087064    -0.9999956  -1.292969e-06
  vds        0.8912923     0.1086949  -1.275470e-05 -1.275470e-05
  vbs        0.           -0.8912923     0.            0.        
  vth        0.2455032     0.3268826    -0.2387308    -0.2387308 
  vdsat    3.558110e-02  4.014375e-02   -0.5808371  -4.262885e-02
  vod       -0.2454988    -0.2181762    -0.7612648     0.2387295 
  beta     2.814634e-03  2.948968e-03  5.865789e-04  6.807623e-04
  gam eff    0.1569000     0.1569000     0.2250000     0.2250000 
  gm       9.960807e-08  9.875802e-08  3.315254e-09  7.639013e-12
  gds      4.570734e-09  1.113352e-08  2.999416e-04  2.009972e-08
  gmb      7.773631e-09  5.192375e-09  6.217016e-10  8.642244e-13
  cdtot    5.069891e-16  5.382029e-16  1.720060e-15  6.701205e-16
  cgtot    4.273426e-16  4.598788e-16  8.310776e-16  4.148568e-16
  cstot    6.601755e-16  5.560409e-16  1.263509e-15  6.721214e-16
  cbtot    8.031786e-16  6.739790e-16  9.836729e-16  9.871757e-16
  cgs      2.184693e-16  2.263578e-16  4.191559e-16  1.935342e-16
  cgd      1.768551e-16  2.139169e-16  4.326551e-16  1.892285e-16



 subckt   x4bfa.xfa9.xo x4bfa.xfa9.xo x4bfa.xfa9.xo x4bfa.xfa9.xo
 element   669:mnn1-2    669:mnn2-2    669:mpn1-2    669:mpn2-2  
 model       0:n_10_sp     0:n_10_sp     0:p_10_sp     0:p_10_sp 
 region   Subth         Subth         Linear        Subth        
  id       3.188689e-09  3.232709e-09 -3.820105e-09 -2.564364e-13
  ibs     -1.686586e-20 -1.782577e-12  2.057093e-20  1.352260e-24
  ibd     -1.782577e-12 -1.999975e-12  2.549290e-17  2.551262e-17
  vgs      9.144453e-06    0.1087103    -0.9999909  -1.292969e-06
  vds        0.8912884     0.1086989  -1.275624e-05 -1.275624e-05
  vbs        0.           -0.8912884     0.            0.        
  vth        0.2455033     0.3268822    -0.2387308    -0.2387308 
  vdsat    3.558110e-02  4.014374e-02   -0.5808338  -4.262885e-02
  vod       -0.2454941    -0.2181719    -0.7612600     0.2387295 
  beta     2.814634e-03  2.948968e-03  5.865796e-04  6.807623e-04
  gam eff    0.1569000     0.1569000     0.2250000     0.2250000 
  gm       9.962208e-08  9.877169e-08  3.315672e-09  7.639934e-12
  gds      4.571394e-09  1.113480e-08  2.999403e-04  2.009972e-08
  gmb      7.774731e-09  5.193102e-09  6.217772e-10  8.643286e-13
  cdtot    5.069895e-16  5.382029e-16  1.720059e-15  6.701205e-16
  cgtot    4.273435e-16  4.598798e-16  8.310776e-16  4.148568e-16
  cstot    6.601763e-16  5.560420e-16  1.263509e-15  6.721214e-16
  cbtot    8.031787e-16  6.739792e-16  9.836729e-16  9.871757e-16
  cgs      2.184700e-16  2.263589e-16  4.191560e-16  1.935342e-16
  cgd      1.768554e-16  2.139169e-16  4.326549e-16  1.892285e-16



 subckt   x4bfa.xfa9.xo x4bfa.xfa9.xo x4bfa.xfa9.xo x4bfa.xfa9.xo
 element   670:mnn1-2    670:mnn2-2    670:mpn1-2    670:mpn2-2  
 model       0:n_10_sp     0:n_10_sp     0:p_10_sp     0:p_10_sp 
 region   Linear        Linear        Subth         Subth        
  id       5.956767e-09  5.485879e-09 -2.169943e-09 -2.169943e-09
  ibs     -3.275233e-20 -9.858235e-18  1.144447e-20  1.144447e-20
  ibd     -9.797712e-18 -1.885130e-17  1.999981e-12  1.999981e-12
  vgs        0.9999872     0.9999823  -1.275470e-05 -1.275624e-05
  vds      4.913968e-06  4.525530e-06   -0.9999906    -0.9999906 
  vbs        0.         -4.913968e-06    0.            0.        
  vth        0.2663404     0.2663409    -0.2421318    -0.2421318 
  vdsat      0.4271263     0.4271235  -4.262609e-02 -4.262609e-02
  vod        0.7336469     0.7336415     0.2421190     0.2421190 
  beta     2.475459e-03  2.475466e-03  6.793059e-04  6.793059e-04
  gam eff    0.1569000     0.1569000     0.2250000     0.2250000 
  gm       4.036395e-09  3.717370e-09  6.473933e-08  6.473934e-08
  gds      1.220026e-03  1.220023e-03  1.501726e-09  1.501726e-09
  gmb      8.636752e-10  7.954001e-10  6.110287e-09  6.110288e-09
  cdtot    1.896918e-15  1.896915e-15  4.804866e-16  4.804866e-16
  cgtot    9.038096e-16  9.038095e-16  3.545551e-16  3.545551e-16
  cstot    1.337212e-15  1.337210e-15  6.716315e-16  6.716315e-16
  cbtot    9.094425e-16  9.094399e-16  8.610482e-16  8.610482e-16
  cgs      4.793759e-16  4.793757e-16  1.928125e-16  1.928125e-16
  cgd      4.446908e-16  4.446908e-16  1.294234e-16  1.294234e-16



 subckt   x4bfa.xfa9.xa x4bfa.xfa9.xa x4bfa.xfa9.xa x4bfa.xfa9.xa
 element   671:mni1      671:mpi1      672:mni1      672:mpi1    
 model       0:n_10_sp     0:p_10_sp     0:n_10_sp     0:p_10_sp 
 region   Linear        Subth         Linear        Subth        
  id       2.559936e-09 -2.169246e-09  2.559952e-09 -2.169246e-09
  ibs     -3.187550e-20  1.144080e-20 -3.187569e-20  1.144080e-20
  ibd     -7.694977e-18  1.999993e-12 -7.695025e-18  1.999993e-12
  vgs        0.9999981  -1.862106e-06    0.9999981  -1.862480e-06
  vds      3.861602e-06   -0.9999961   3.861626e-06   -0.9999961 
  vbs        0.            0.            0.            0.        
  vth        0.2388503    -0.2421318     0.2388503    -0.2421318 
  vdsat      0.4377006  -4.262607e-02    0.4377006  -4.262607e-02
  vod        0.7611478     0.2421300     0.7611478     0.2421300 
  beta     1.393676e-03  6.793058e-04  1.393676e-03  6.793058e-04
  gam eff    0.1569000     0.2250000     0.1569000     0.2250000 
  gm       1.722715e-09  6.471894e-08  1.722726e-09  6.471894e-08
  gds      6.681189e-04  1.501235e-09  6.681189e-04  1.501235e-09
  gmb      3.369049e-10  6.108395e-09  3.369070e-10  6.108395e-09
  cdtot    1.071550e-15  4.804859e-16  1.071550e-15  4.804859e-16
  cgtot    5.062960e-16  3.545524e-16  5.062960e-16  3.545524e-16
  cstot    7.662067e-16  6.716290e-16  7.662067e-16  6.716290e-16
  cbtot    5.566906e-16  8.610481e-16  5.566906e-16  8.610481e-16
  cgs      2.656270e-16  1.928097e-16  2.656270e-16  1.928097e-16
  cgd      2.492866e-16  1.294230e-16  2.492866e-16  1.294230e-16



 subckt   x4bfa.xfa9.x_ x4bfa.xfa9.x_
 element   673:mni1      673:mpi1    
 model       0:n_10_sp     0:p_10_sp 
 region   Linear        Subth        
  id       2.378452e-09 -2.173228e-09
  ibs     -2.974384e-20  1.146180e-20
  ibd     -7.149869e-18  1.999993e-12
  vgs        0.9999367  -6.332742e-05
  vds      3.587983e-06   -0.9999964 
  vbs        0.            0.        
  vth        0.2388503    -0.2421318 
  vdsat      0.4376685  -4.262614e-02
  vod        0.7610863     0.2420685 
  beta     1.393713e-03  6.793060e-04
  gam eff    0.1569000     0.2250000 
  gm       1.600868e-09  6.483555e-08
  gds      6.680917e-04  1.503996e-09
  gmb      3.130325e-10  6.119196e-09
  cdtot    1.071543e-15  4.804872e-16
  cgtot    5.062955e-16  3.545669e-16
  cstot    7.662041e-16  6.716434e-16
  cbtot    5.566907e-16  8.610466e-16
  cgs      2.656277e-16  1.928253e-16
  cgd      2.492853e-16  1.294244e-16



 
Warning: EXPR:(10_bit-ARTHSAR_Final.sp 277) syntax error after '1E+4.5HZ' 
 
runlvl= 3 sets ".opt sim_accuracy= 1"  
 
runlvl>=5  resets ".opt rm_rmin = 1.0e-5"  
 
  ******  Summary of Possible Problems in Netlist  *************** 
  Negative resistor              0   
  Negative capacitor             0   
  Negative inductor              0   
  Unconnected node               0   
  Dangling terminal              0   
  Non-rail bulk terminal         0   
  Floating MOS gate              4   
  Floating MOS bulk              0   
  Floating BJT substrate         0   
  Floating controlled input      0   
  Floating current source nodes  0   
  Source loop                    0   
 
Warning: 4 MOS with floating (no DC path to gnd) gate. 
Floating gates are usually a netlist error. If they occur in a subcircuit, then the gate does not connect up through a port. If a subckt port is identified as floating then a port that touches the gate is floating. This message can be suppressed by attaching a ".nodeset" to the node.
 
 
The following elements have a floating gate. 
Location       Subckt   Instance  Net/node  Definition   
(_NAND2.SP:8)  "ADSBN"  "XXOR1"   "BD8"     NAND2        
(_NAND2.SP:7)  "ADSBN"  "XXOR1"   "B8"      NAND2        
(_NAND2.SP:8)  "ADSBN"  "XXOR0"   "BD9"     NAND2        
(_NAND2.SP:7)  "ADSBN"  "XXOR0"   "B9"      NAND2        
 
Warning: in line 307: "V(COMP-)" has no match. 
 
Warning: in line 307: "V(COMP-)" has no match. 
 
No Shorted elements  
 
Warning: .ic node CMPO does not exist 
 
Warning: Node CM has no DC connection 
 
Warning: Node XINIT.BD8 has no DC path to ground. 
 
Warning: Node XINIT.BD9 has no DC path to ground. 
 
Warning: Node XINIT.B8 has no DC path to ground. 
 
Warning: Node XINIT.B9 has no DC path to ground. 
 
Warning: 4 nodes with no DC path to ground found 
SSolve ...  
  
NDD 27 
Running 1 thread. 
  
   
Running HSPICE Precision Parallel (HPP) 
Auto-select transient simulation algorithm 
.   
Warning: in line 307: "V(COMP-)" has no match. 
0.1% time = 7.500000 us ( etc = 11:54:41, ett = 11:55:24 ) 
( wall = 42.9 sec cpu = 42.7 sec s=0.995475 ) 
0.2% time = 15.000000 us ( etc = 13:08:42, ett = 13:10:17 ) 
( wall = 1:34 cpu = 1:34 s=0.996041 ) 
0.3% time = 22.500000 us ( etc = 15:13:54, ett = 15:16:39 ) 
( wall = 2:44 cpu = 2:44 s=0.996248 ) 
0.4% time = 30.000000 us ( etc = 16:31:30, ett = 16:35:29 ) 
( wall = 3:58 cpu = 3:58 s=0.996372 ) 
 **error** stop simulation by signal SIGINTT =2 
